TACC:  Starting up job 2957193 
TACC:  Starting parallel tasks... 
/*---------------------------------------------------------------------------*\
  =========                 |
  \\      /  F ield         | OpenFOAM: The Open Source CFD Toolbox
   \\    /   O peration     | Website:  https://openfoam.org
    \\  /    A nd           | Version:  12
     \\/     M anipulation  |
\*---------------------------------------------------------------------------*/
Build  : 12-6aa359dae696
Exec   : /home1/apps/intel24/impi21/OpenFOAM/OpenFOAM-12/platforms/linux64IcxDPInt32Opt/bin/snappyHexMesh -parallel -overwrite
Date   : Mar 03 2026
Time   : 08:38:37
Host   : "c313-103.ls6.tacc.utexas.edu"
PID    : 94967
I/O    : uncollated
Case   : /work/11170/roy/FRP-Beam-Cleaning
nProcs : 12
Slaves : 
11
(
"c313-103.ls6.tacc.utexas.edu.94968"
"c313-103.ls6.tacc.utexas.edu.94969"
"c313-103.ls6.tacc.utexas.edu.94970"
"c313-103.ls6.tacc.utexas.edu.94971"
"c313-103.ls6.tacc.utexas.edu.94972"
"c313-103.ls6.tacc.utexas.edu.94973"
"c313-103.ls6.tacc.utexas.edu.94974"
"c313-103.ls6.tacc.utexas.edu.94975"
"c313-103.ls6.tacc.utexas.edu.94976"
"c313-103.ls6.tacc.utexas.edu.94977"
"c313-103.ls6.tacc.utexas.edu.94978"
)

Pstream initialised with:
    floatTransfer      : false
    nProcsSimpleSum    : 0
    commsType          : nonBlocking
    polling iterations : 0
sigFpe : Enabling floating point exception trapping (FOAM_SIGFPE).
fileModificationChecking : Monitoring run-time modified files using timeStampMaster (fileModificationSkew 10)
allowSystemOperations : Allowing user-supplied system call operations

// * * * * * * * * * * * * * * * * * * * * * * * * * * * * * * * * * * * * * //
Create time

Create mesh for time = 0

Read mesh in = 0.975206 s
Reading "snappyHexMeshDict"


Overall mesh bounding box  : (-0.25 -3.74 -0.25) (0.25 0.5 0.25)
Relative tolerance         : 1e-06
Absolute matching distance : 4.29856e-06

beamWalls : using scale 0.001
beamFrontOpening : using scale 0.001
beamBackOpening : using scale 0.001
beamHoles : using scale 0.001
nozzle : using scale 0.001
nozzleInlet : using scale 0.001
Reading refinement surfaces...
Read refinement surfaces in = 0.059726 s

Reading refinement regions...
--> FOAM Warning : 
    From function void Foam::refinementRegions::setAndCheckLevels(const label, const dictionary &)
    in file refinementRegions/refinementRegions.C at line 71
    Shell beamWalls is not closed so testing for 'inside' may fail.
Refinement level 3 for all cells inside beamWalls
Refinement level according to distance to beamHoles
    level 5 for all cells within 0.002 metre.
    level 4 for all cells within 0.005 metre.
Refinement level according to distance to nozzle
    level 4 for all cells within 0.005 metre.
refinementRegions : Flipped orientation of surface beamWalls so point (0.0762 3.2401 0.0762) is outside.
Read refinement regions in = 0.000882 s

Reading features...
Read extendedFeatureEdgeMesh beam_walls.extendedFeatureEdgeMesh
    points      : 20
    edges       : 32
    boundingBox : (-25.4 -3240.1 -25.4) (25.4 0 25.4)
    point classification :
        convex feature points          :       12
        concave feature points         :        4
        mixed feature points           :        4
        other (non-feature) points     :        0
    edge classification :
        external (convex angle) edges  :       20
        internal (concave angle) edges :        8
        flat region edges              :        0
        open edges                     :        0
        multiply connected edges       :        4

Refinement level according to distance to "beam_walls.extendedFeatureEdgeMesh" (20 points, 32 edges).
    level 3 for all cells within 0 metre.
Read extendedFeatureEdgeMesh beam_holes.extendedFeatureEdgeMesh
    points      : 9720
    edges       : 10068
    boundingBox : (-1.74574 -3211.75 -25.4) (1.75 -28.2511 25.4)
    point classification :
        convex feature points          :        0
        concave feature points         :        0
        mixed feature points           :      180
        other (non-feature) points     :     9540
    edge classification :
        external (convex angle) edges  :     9540
        internal (concave angle) edges :        0
        flat region edges              :        0
        open edges                     :        0
        multiply connected edges       :      528

Refinement level according to distance to "beam_holes.extendedFeatureEdgeMesh" (9720 points, 10068 edges).
    level 5 for all cells within 0 metre.
Read extendedFeatureEdgeMesh nozzle.extendedFeatureEdgeMesh
    points      : 504
    edges       : 504
    boundingBox : (-10 -3000 -9.99689) (10 -2490 9.99689)
    point classification :
        convex feature points          :        0
        concave feature points         :        0
        mixed feature points           :        0
        other (non-feature) points     :      504
    edge classification :
        external (convex angle) edges  :      504
        internal (concave angle) edges :        0
        flat region edges              :        0
        open edges                     :        0
        multiply connected edges       :        0

Refinement level according to distance to "nozzle.extendedFeatureEdgeMesh" (504 points, 504 edges).
    level 4 for all cells within 0 metre.
Read extendedFeatureEdgeMesh nozzle_inlet.extendedFeatureEdgeMesh
    points      : 122
    edges       : 122
    boundingBox : (-4.24546 -2600.17 -4.24859) (4.24935 -2599.93 4.24859)
    point classification :
        convex feature points          :        0
        concave feature points         :        0
        mixed feature points           :        0
        other (non-feature) points     :      122
    edge classification :
        external (convex angle) edges  :      122
        internal (concave angle) edges :        0
        flat region edges              :        0
        open edges                     :        0
        multiply connected edges       :        0

Refinement level according to distance to "nozzle_inlet.extendedFeatureEdgeMesh" (122 points, 122 edges).
    level 5 for all cells within 0 metre.
Read extendedFeatureEdgeMesh beam_front_opening.extendedFeatureEdgeMesh
    points      : 8
    edges       : 12
    boundingBox : (-19.05 -0.1 -19.05) (19.05 4.22995e-15 19.05)
    point classification :
        convex feature points          :        8
        concave feature points         :        0
        mixed feature points           :        0
        other (non-feature) points     :        0
    edge classification :
        external (convex angle) edges  :       12
        internal (concave angle) edges :        0
        flat region edges              :        0
        open edges                     :        0
        multiply connected edges       :        0

Refinement level according to distance to "beam_front_opening.extendedFeatureEdgeMesh" (8 points, 12 edges).
    level 3 for all cells within 0 metre.
Read extendedFeatureEdgeMesh beam_back_opening.extendedFeatureEdgeMesh
    points      : 8
    edges       : 12
    boundingBox : (-19.05 -3240.1 -19.05) (19.05 -3240 19.05)
    point classification :
        convex feature points          :        8
        concave feature points         :        0
        mixed feature points           :        0
        other (non-feature) points     :        0
    edge classification :
        external (convex angle) edges  :       12
        internal (concave angle) edges :        0
        flat region edges              :        0
        open edges                     :        0
        multiply connected edges       :        0

Refinement level according to distance to "beam_back_opening.extendedFeatureEdgeMesh" (8 points, 12 edges).
    level 3 for all cells within 0 metre.
Read features in = 0.162442 s


Determining initial surface intersections
-----------------------------------------

Edge intersection testing:
    Number of edges             : 5144000
    Number of edges to retest   : 5144000
    Number of intersected edges : 9748
Calculated surface intersections in = 2.38165 s

Initial mesh : cells:1700000  faces:5144000  points:1744371
Cells per refinement level:
    0	1700000

Adding patches for surface regions
----------------------------------

Patch Type                Region                        
----- ----                ------                        
beamWalls:

1     wall                beamWalls                     

beamFrontOpening:

2     patch               beamFrontOpening              

beamBackOpening:

3     patch               beamBackOpening               

beamHoles:

4     patch               beamHoles                     

nozzle:

5     wall                nozzle                        

nozzleInlet:

6     patch               nozzleInlet                   

Added patches in = 0.597905 s

Selecting distributor scotch
Cell selection insidePoints: 1((0 -1.62 0))

Refinement phase
----------------

Found point (0 -1.62 0) in cell 69232 on processor 6

Feature refinement iteration 0
------------------------------

--> FOAM Warning : 
    From function Foam::scalar Foam::particle::trackToFace(const polyMesh &, const vector &, const scalar)
    in file particle/particle.C at line 606
    Particle #10 got stuck at (0.116605 -1.61256 0.116605)
--> FOAM Warning : 
    From function Foam::scalar Foam::particle::trackToFace(const polyMesh &, const vector &, const scalar)
    in file particle/particle.C at line 606
    Particle #10 got stuck at (0.117315 -1.61252 0.117315)
--> FOAM Warning : 
    From function Foam::scalar Foam::particle::trackToFace(const polyMesh &, const vector &, const scalar)
    in file particle/particle.C at line 606
    Particle #10 got stuck at (0.116605 -1.61256 0.116605)
Marked for refinement due to explicit features             : 378 cells.
Determined cells to refine in = 18.2951 s
Selected for feature refinement : 378 cells (out of 1700000)
Edge intersection testing:
    Number of edges             : 5154212
    Number of edges to retest   : 17048
    Number of intersected edges : 9808
Refined mesh in = 2.72584 s
After refinement feature refinement iteration 0 : cells:1702646  faces:5154212  points:1749644
Cells per refinement level:
    0	1699622
    1	3024
Balanced mesh in = 10.7439 s
After balancing feature refinement iteration 0 : cells:1702646  faces:5154212  points:1749644
Cells per refinement level:
    0	1699622
    1	3024

Feature refinement iteration 1
------------------------------

Marked for refinement due to explicit features             : 537 cells.
Determined cells to refine in = 17.6618 s
Selected for feature refinement : 538 cells (out of 1702646)
Edge intersection testing:
    Number of edges             : 5168132
    Number of edges to retest   : 23979
    Number of intersected edges : 9876
Refined mesh in = 2.40876 s
After refinement feature refinement iteration 1 : cells:1706412  faces:5168132  points:1756388
Cells per refinement level:
    0	1699089
    1	7283
    2	40
Balanced mesh in = 11.4067 s
After balancing feature refinement iteration 1 : cells:1706412  faces:5168132  points:1756388
Cells per refinement level:
    0	1699089
    1	7283
    2	40

Feature refinement iteration 2
------------------------------

Marked for refinement due to explicit features             : 90 cells.
Determined cells to refine in = 19.9467 s
Selected for feature refinement : 94 cells (out of 1706412)
Edge intersection testing:
    Number of edges             : 5170658
    Number of edges to retest   : 4194
    Number of intersected edges : 9876
Refined mesh in = 2.39332 s
After refinement feature refinement iteration 2 : cells:1707070  faces:5170658  points:1757689
Cells per refinement level:
    0	1699000
    1	7990
    2	80
Balanced mesh in = 11.2189 s
After balancing feature refinement iteration 2 : cells:1707070  faces:5170658  points:1757689
Cells per refinement level:
    0	1699000
    1	7990
    2	80

Feature refinement iteration 3
------------------------------

Marked for refinement due to explicit features             : 13 cells.
Determined cells to refine in = 17.9352 s
Selected for feature refinement : 16 cells (out of 1707070)
Edge intersection testing:
    Number of edges             : 5171078
    Number of edges to retest   : 742
    Number of intersected edges : 9876
Refined mesh in = 2.30845 s
After refinement feature refinement iteration 3 : cells:1707182  faces:5171078  points:1757898
Cells per refinement level:
    0	1698988
    1	8082
    2	112
Balanced mesh in = 11.3874 s
After balancing feature refinement iteration 3 : cells:1707182  faces:5171078  points:1757898
Cells per refinement level:
    0	1698988
    1	8082
    2	112

Feature refinement iteration 4
------------------------------

Marked for refinement due to explicit features             : 425 cells.
Determined cells to refine in = 17.372 s
Selected for feature refinement : 637 cells (out of 1707182)
Edge intersection testing:
    Number of edges             : 5187338
    Number of edges to retest   : 27511
    Number of intersected edges : 10110
Refined mesh in = 2.48373 s
After refinement feature refinement iteration 4 : cells:1711641  faces:5187338  points:1765616
Cells per refinement level:
    0	1698655
    1	10447
    2	2499
    3	40
Balanced mesh in = 11.2695 s
After balancing feature refinement iteration 4 : cells:1711641  faces:5187338  points:1765616
Cells per refinement level:
    0	1698655
    1	10447
    2	2499
    3	40

Feature refinement iteration 5
------------------------------

Marked for refinement due to explicit features             : 0 cells.
Determined cells to refine in = 20.0214 s
Selected for feature refinement : 0 cells (out of 1711641)
Stopping refining since too few cells selected.


Surface refinement iteration 0
------------------------------

Marked for refinement due to surface intersection          : 14467 cells.
Marked for refinement due to curvature/regions             : 0 cells.
Determined cells to refine in = 0.075985 s
Selected for refinement : 14489 cells (out of 1711641)
Edge intersection testing:
    Number of edges             : 5507483
    Number of edges to retest   : 401025
    Number of intersected edges : 40648
Refined mesh in = 3.0556 s
After refinement surface refinement iteration 0 : cells:1813064  faces:5507483  points:1882891
Cells per refinement level:
    0	1684718
    1	121407
    2	6771
    3	168
Balanced mesh in = 12.899 s
After balancing surface refinement iteration 0 : cells:1813064  faces:5507483  points:1882891
Cells per refinement level:
    0	1684718
    1	121407
    2	6771
    3	168

Surface refinement iteration 1
------------------------------

Marked for refinement due to surface intersection          : 76058 cells.
Marked for refinement due to curvature/regions             : 64 cells.
Determined cells to refine in = 0.337077 s
Selected for refinement : 76827 cells (out of 1813064)
Edge intersection testing:
    Number of edges             : 7190915
    Number of edges to retest   : 2058672
    Number of intersected edges : 160094
Refined mesh in = 10.6769 s
After refinement surface refinement iteration 1 : cells:2350853  faces:7190915  points:2490059
Cells per refinement level:
    0	1684095
    1	51831
    2	601671
    3	12744
    4	512
Balanced mesh in = 20.7882 s
After balancing surface refinement iteration 1 : cells:2350853  faces:7190915  points:2490059
Cells per refinement level:
    0	1684095
    1	51831
    2	601671
    3	12744
    4	512

Surface refinement iteration 2
------------------------------

Marked for refinement due to surface intersection          : 301716 cells.
Marked for refinement due to curvature/regions             : 1288 cells.
Determined cells to refine in = 0.541675 s
Selected for refinement : 320842 cells (out of 2350853)
Edge intersection testing:
    Number of edges             : 14387255
    Number of edges to retest   : 9049223
    Number of intersected edges : 651685
Refined mesh in = 25.0819 s
After refinement surface refinement iteration 2 : cells:4596747  faces:14387255  points:5194600
Cells per refinement level:
    0	1681629
    1	56599
    2	422769
    3	2396566
    4	39184
Balanced mesh in = 41.2582 s
After balancing surface refinement iteration 2 : cells:4596747  faces:14387255  points:5194600
Cells per refinement level:
    0	1681629
    1	56599
    2	422769
    3	2396566
    4	39184

Surface refinement iteration 3
------------------------------

Marked for refinement due to surface intersection          : 44806 cells.
Marked for refinement due to curvature/regions             : 21179 cells.
Determined cells to refine in = 1.98606 s
Selected for refinement : 69608 cells (out of 4596747)
Edge intersection testing:
    Number of edges             : 15979352
    Number of edges to retest   : 2282045
    Number of intersected edges : 832047
Refined mesh in = 16.8712 s
After refinement surface refinement iteration 3 : cells:5084003  faces:15979352  points:5819440
Cells per refinement level:
    0	1681325
    1	58585
    2	420647
    3	2381065
    4	525205
    5	17176
Balanced mesh in = 41.0989 s
After balancing surface refinement iteration 3 : cells:5084003  faces:15979352  points:5819440
Cells per refinement level:
    0	1681325
    1	58585
    2	420647
    3	2381065
    4	525205
    5	17176

Surface refinement iteration 4
------------------------------

Marked for refinement due to surface intersection          : 94244 cells.
Marked for refinement due to curvature/regions             : 20859 cells.
Determined cells to refine in = 3.11389 s
Selected for refinement : 122795 cells (out of 5084003)
Edge intersection testing:
    Number of edges             : 18777011
    Number of edges to retest   : 3680037
    Number of intersected edges : 1115761
Refined mesh in = 25.9494 s
After refinement surface refinement iteration 4 : cells:5943568  faces:18777011  points:6909626
Cells per refinement level:
    0	1681303
    1	58711
    2	420089
    3	2375079
    4	526290
    5	882096
Balanced mesh in = 49.2394 s
After balancing surface refinement iteration 4 : cells:5943568  faces:18777011  points:6909626
Cells per refinement level:
    0	1681303
    1	58711
    2	420089
    3	2375079
    4	526290
    5	882096

Surface refinement iteration 5
------------------------------

Marked for refinement due to surface intersection          : 10576 cells.
Marked for refinement due to curvature/regions             : 42663 cells.
Determined cells to refine in = 6.43833 s
Selected for refinement : 59760 cells (out of 5943568)
Edge intersection testing:
    Number of edges             : 20212973
    Number of edges to retest   : 2276410
    Number of intersected edges : 1335344
Refined mesh in = 19.6355 s
After refinement surface refinement iteration 5 : cells:6361888  faces:20212973  points:7526704
Cells per refinement level:
    0	1681263
    1	58965
    2	419725
    3	2379481
    4	534104
    5	952590
    6	335760
Balanced mesh in = 49.4468 s
After balancing surface refinement iteration 5 : cells:6361888  faces:20212973  points:7526704
Cells per refinement level:
    0	1681263
    1	58965
    2	419725
    3	2379481
    4	534104
    5	952590
    6	335760

Surface refinement iteration 6
------------------------------

Marked for refinement due to surface intersection          : 32 cells.
Marked for refinement due to curvature/regions             : 13298 cells.
Determined cells to refine in = 12.5905 s
Selected for refinement : 15135 cells (out of 6361888)
Edge intersection testing:
    Number of edges             : 20572571
    Number of edges to retest   : 739762
    Number of intersected edges : 1390850
Refined mesh in = 14.6473 s
After refinement surface refinement iteration 6 : cells:6467833  faces:20572571  points:7676742
Cells per refinement level:
    0	1681263
    1	58961
    2	419701
    3	2379506
    4	535918
    5	952068
    6	440416
Balanced mesh in = 49.5841 s
After balancing surface refinement iteration 6 : cells:6467833  faces:20572571  points:7676742
Cells per refinement level:
    0	1681263
    1	58961
    2	419701
    3	2379506
    4	535918
    5	952068
    6	440416

Surface refinement iteration 7
------------------------------

Marked for refinement due to surface intersection          : 0 cells.
Marked for refinement due to curvature/regions             : 704 cells.
Determined cells to refine in = 9.67407 s
Selected for refinement : 1022 cells (out of 6467833)
Edge intersection testing:
    Number of edges             : 20595320
    Number of edges to retest   : 55618
    Number of intersected edges : 1391262
Refined mesh in = 9.4207 s
After refinement surface refinement iteration 7 : cells:6474987  faces:20595320  points:7685139
Cells per refinement level:
    0	1681263
    1	58961
    2	419681
    3	2379589
    4	536247
    5	953726
    6	445520
Balanced mesh in = 49.0817 s
After balancing surface refinement iteration 7 : cells:6474987  faces:20595320  points:7685139
Cells per refinement level:
    0	1681263
    1	58961
    2	419681
    3	2379589
    4	536247
    5	953726
    6	445520

Surface refinement iteration 8
------------------------------

Marked for refinement due to surface intersection          : 0 cells.
Marked for refinement due to curvature/regions             : 46 cells.
Determined cells to refine in = 11.3365 s
Selected for refinement : 58 cells (out of 6474987)
Edge intersection testing:
    Number of edges             : 20596709
    Number of edges to retest   : 4256
    Number of intersected edges : 1391398
Refined mesh in = 9.84316 s
After refinement surface refinement iteration 8 : cells:6475393  faces:20596709  points:7685708
Cells per refinement level:
    0	1681263
    1	58961
    2	419677
    3	2379601
    4	536373
    5	953998
    6	445520
Balanced mesh in = 50.7519 s
After balancing surface refinement iteration 8 : cells:6475393  faces:20596709  points:7685708
Cells per refinement level:
    0	1681263
    1	58961
    2	419677
    3	2379601
    4	536373
    5	953998
    6	445520

Surface refinement iteration 9
------------------------------

Marked for refinement due to surface intersection          : 0 cells.
Marked for refinement due to curvature/regions             : 8 cells.
Determined cells to refine in = 10.0949 s
Selected for refinement : 16 cells (out of 6475393)
Edge intersection testing:
    Number of edges             : 20597093
    Number of edges to retest   : 1428
    Number of intersected edges : 1391462
Refined mesh in = 8.91784 s
After refinement surface refinement iteration 9 : cells:6475505  faces:20597093  points:7685868
Cells per refinement level:
    0	1681263
    1	58961
    2	419669
    3	2379657
    4	536437
    5	953998
    6	445520
Balanced mesh in = 49.6272 s
After balancing surface refinement iteration 9 : cells:6475505  faces:20597093  points:7685868
Cells per refinement level:
    0	1681263
    1	58961
    2	419669
    3	2379657
    4	536437
    5	953998
    6	445520

Surface refinement iteration 10
------------------------------

Marked for refinement due to surface intersection          : 0 cells.
Marked for refinement due to curvature/regions             : 16 cells.
Determined cells to refine in = 12.2536 s
Selected for refinement : 16 cells (out of 6475505)
Edge intersection testing:
    Number of edges             : 20597501
    Number of edges to retest   : 1177
    Number of intersected edges : 1391558
Refined mesh in = 9.19378 s
After refinement surface refinement iteration 10 : cells:6475617  faces:20597501  points:7686052
Cells per refinement level:
    0	1681263
    1	58961
    2	419669
    3	2379641
    4	536565
    5	953998
    6	445520
Balanced mesh in = 48.4898 s
After balancing surface refinement iteration 10 : cells:6475617  faces:20597501  points:7686052
Cells per refinement level:
    0	1681263
    1	58961
    2	419669
    3	2379641
    4	536565
    5	953998
    6	445520

Surface refinement iteration 11
------------------------------

Marked for refinement due to surface intersection          : 0 cells.
Marked for refinement due to curvature/regions             : 11 cells.
Determined cells to refine in = 7.70751 s
Selected for refinement : 19 cells (out of 6475617)
Edge intersection testing:
    Number of edges             : 20597948
    Number of edges to retest   : 1611
    Number of intersected edges : 1391622
Refined mesh in = 8.53852 s
After refinement surface refinement iteration 11 : cells:6475750  faces:20597948  points:7686233
Cells per refinement level:
    0	1681263
    1	58961
    2	419661
    3	2379694
    4	536653
    5	953998
    6	445520
Balanced mesh in = 50.2994 s
After balancing surface refinement iteration 11 : cells:6475750  faces:20597948  points:7686233
Cells per refinement level:
    0	1681263
    1	58961
    2	419661
    3	2379694
    4	536653
    5	953998
    6	445520

Surface refinement iteration 12
------------------------------

Marked for refinement due to surface intersection          : 0 cells.
Marked for refinement due to curvature/regions             : 15 cells.
Determined cells to refine in = 10.1525 s
Selected for refinement : 15 cells (out of 6475750)
Edge intersection testing:
    Number of edges             : 20598326
    Number of edges to retest   : 1124
    Number of intersected edges : 1391706
Refined mesh in = 9.08362 s
After refinement surface refinement iteration 12 : cells:6475855  faces:20598326  points:7686401
Cells per refinement level:
    0	1681263
    1	58961
    2	419661
    3	2379679
    4	536773
    5	953998
    6	445520
Balanced mesh in = 51.6737 s
After balancing surface refinement iteration 12 : cells:6475855  faces:20598326  points:7686401
Cells per refinement level:
    0	1681263
    1	58961
    2	419661
    3	2379679
    4	536773
    5	953998
    6	445520

Surface refinement iteration 13
------------------------------

Marked for refinement due to surface intersection          : 0 cells.
Marked for refinement due to curvature/regions             : 10 cells.
Determined cells to refine in = 9.67467 s
Selected for refinement : 18 cells (out of 6475855)
Edge intersection testing:
    Number of edges             : 20598758
    Number of edges to retest   : 1550
    Number of intersected edges : 1391778
Refined mesh in = 8.99496 s
After refinement surface refinement iteration 13 : cells:6475981  faces:20598758  points:7686581
Cells per refinement level:
    0	1681263
    1	58961
    2	419653
    3	2379733
    4	536853
    5	953998
    6	445520
Balanced mesh in = 51.5208 s
After balancing surface refinement iteration 13 : cells:6475981  faces:20598758  points:7686581
Cells per refinement level:
    0	1681263
    1	58961
    2	419653
    3	2379733
    4	536853
    5	953998
    6	445520

Surface refinement iteration 14
------------------------------

Marked for refinement due to surface intersection          : 0 cells.
Marked for refinement due to curvature/regions             : 15 cells.
Determined cells to refine in = 7.67409 s
Selected for refinement : 15 cells (out of 6475981)
Edge intersection testing:
    Number of edges             : 20599142
    Number of edges to retest   : 1129
    Number of intersected edges : 1391870
Refined mesh in = 9.32244 s
After refinement surface refinement iteration 14 : cells:6476086  faces:20599142  points:7686755
Cells per refinement level:
    0	1681263
    1	58961
    2	419653
    3	2379718
    4	536973
    5	953998
    6	445520
Balanced mesh in = 49.9471 s
After balancing surface refinement iteration 14 : cells:6476086  faces:20599142  points:7686755
Cells per refinement level:
    0	1681263
    1	58961
    2	419653
    3	2379718
    4	536973
    5	953998
    6	445520

Surface refinement iteration 15
------------------------------

Marked for refinement due to surface intersection          : 0 cells.
Marked for refinement due to curvature/regions             : 11 cells.
Determined cells to refine in = 7.93049 s
Selected for refinement : 19 cells (out of 6476086)
Edge intersection testing:
    Number of edges             : 20599595
    Number of edges to retest   : 1604
    Number of intersected edges : 1391942
Refined mesh in = 8.89015 s
After refinement surface refinement iteration 15 : cells:6476219  faces:20599595  points:7686942
Cells per refinement level:
    0	1681263
    1	58961
    2	419645
    3	2379771
    4	537061
    5	953998
    6	445520
Balanced mesh in = 49.4002 s
After balancing surface refinement iteration 15 : cells:6476219  faces:20599595  points:7686942
Cells per refinement level:
    0	1681263
    1	58961
    2	419645
    3	2379771
    4	537061
    5	953998
    6	445520

Surface refinement iteration 16
------------------------------

Marked for refinement due to surface intersection          : 0 cells.
Marked for refinement due to curvature/regions             : 16 cells.
Determined cells to refine in = 11.709 s
Selected for refinement : 16 cells (out of 6476219)
Edge intersection testing:
    Number of edges             : 20599994
    Number of edges to retest   : 1198
    Number of intersected edges : 1392026
Refined mesh in = 8.81826 s
After refinement surface refinement iteration 16 : cells:6476331  faces:20599994  points:7687117
Cells per refinement level:
    0	1681263
    1	58961
    2	419645
    3	2379755
    4	537189
    5	953998
    6	445520
Balanced mesh in = 50.6771 s
After balancing surface refinement iteration 16 : cells:6476331  faces:20599994  points:7687117
Cells per refinement level:
    0	1681263
    1	58961
    2	419645
    3	2379755
    4	537189
    5	953998
    6	445520

Surface refinement iteration 17
------------------------------

Marked for refinement due to surface intersection          : 0 cells.
Marked for refinement due to curvature/regions             : 11 cells.
Determined cells to refine in = 8.82469 s
Selected for refinement : 19 cells (out of 6476331)
Edge intersection testing:
    Number of edges             : 20600447
    Number of edges to retest   : 1607
    Number of intersected edges : 1392098
Refined mesh in = 8.90526 s
After refinement surface refinement iteration 17 : cells:6476464  faces:20600447  points:7687304
Cells per refinement level:
    0	1681263
    1	58961
    2	419637
    3	2379808
    4	537277
    5	953998
    6	445520
Balanced mesh in = 50.6502 s
After balancing surface refinement iteration 17 : cells:6476464  faces:20600447  points:7687304
Cells per refinement level:
    0	1681263
    1	58961
    2	419637
    3	2379808
    4	537277
    5	953998
    6	445520

Surface refinement iteration 18
------------------------------

Marked for refinement due to surface intersection          : 0 cells.
Marked for refinement due to curvature/regions             : 14 cells.
Determined cells to refine in = 8.62068 s
Selected for refinement : 14 cells (out of 6476464)
Edge intersection testing:
    Number of edges             : 20600804
    Number of edges to retest   : 1065
    Number of intersected edges : 1392182
Refined mesh in = 8.76548 s
After refinement surface refinement iteration 18 : cells:6476562  faces:20600804  points:7687465
Cells per refinement level:
    0	1681263
    1	58961
    2	419637
    3	2379794
    4	537389
    5	953998
    6	445520
Balanced mesh in = 51.3819 s
After balancing surface refinement iteration 18 : cells:6476562  faces:20600804  points:7687465
Cells per refinement level:
    0	1681263
    1	58961
    2	419637
    3	2379794
    4	537389
    5	953998
    6	445520

Surface refinement iteration 19
------------------------------

Marked for refinement due to surface intersection          : 0 cells.
Marked for refinement due to curvature/regions             : 9 cells.
Determined cells to refine in = 9.77953 s
Selected for refinement : 17 cells (out of 6476562)
Edge intersection testing:
    Number of edges             : 20601212
    Number of edges to retest   : 1492
    Number of intersected edges : 1392250
Refined mesh in = 9.14663 s
After refinement surface refinement iteration 19 : cells:6476681  faces:20601212  points:7687635
Cells per refinement level:
    0	1681263
    1	58961
    2	419629
    3	2379849
    4	537461
    5	953998
    6	445520
Balanced mesh in = 49.172 s
After balancing surface refinement iteration 19 : cells:6476681  faces:20601212  points:7687635
Cells per refinement level:
    0	1681263
    1	58961
    2	419629
    3	2379849
    4	537461
    5	953998
    6	445520

Surface refinement iteration 20
------------------------------

Marked for refinement due to surface intersection          : 0 cells.
Marked for refinement due to curvature/regions             : 14 cells.
Determined cells to refine in = 7.45083 s
Selected for refinement : 14 cells (out of 6476681)
Edge intersection testing:
    Number of edges             : 20601572
    Number of edges to retest   : 1051
    Number of intersected edges : 1392338
Refined mesh in = 8.66734 s
After refinement surface refinement iteration 20 : cells:6476779  faces:20601572  points:7687799
Cells per refinement level:
    0	1681263
    1	58961
    2	419629
    3	2379835
    4	537573
    5	953998
    6	445520
Balanced mesh in = 51.3368 s
After balancing surface refinement iteration 20 : cells:6476779  faces:20601572  points:7687799
Cells per refinement level:
    0	1681263
    1	58961
    2	419629
    3	2379835
    4	537573
    5	953998
    6	445520

Surface refinement iteration 21
------------------------------

Marked for refinement due to surface intersection          : 0 cells.
Marked for refinement due to curvature/regions             : 10 cells.
Determined cells to refine in = 9.70425 s
Selected for refinement : 18 cells (out of 6476779)
Edge intersection testing:
    Number of edges             : 20602001
    Number of edges to retest   : 1546
    Number of intersected edges : 1392406
Refined mesh in = 9.12017 s
After refinement surface refinement iteration 21 : cells:6476905  faces:20602001  points:7687976
Cells per refinement level:
    0	1681263
    1	58961
    2	419621
    3	2379889
    4	537653
    5	953998
    6	445520
Balanced mesh in = 50.5602 s
After balancing surface refinement iteration 21 : cells:6476905  faces:20602001  points:7687976
Cells per refinement level:
    0	1681263
    1	58961
    2	419621
    3	2379889
    4	537653
    5	953998
    6	445520

Surface refinement iteration 22
------------------------------

Marked for refinement due to surface intersection          : 0 cells.
Marked for refinement due to curvature/regions             : 16 cells.
Determined cells to refine in = 9.06638 s
Selected for refinement : 16 cells (out of 6476905)
Edge intersection testing:
    Number of edges             : 20602409
    Number of edges to retest   : 1186
    Number of intersected edges : 1392502
Refined mesh in = 9.14923 s
After refinement surface refinement iteration 22 : cells:6477017  faces:20602409  points:7688160
Cells per refinement level:
    0	1681263
    1	58961
    2	419621
    3	2379873
    4	537781
    5	953998
    6	445520
Balanced mesh in = 49.9036 s
After balancing surface refinement iteration 22 : cells:6477017  faces:20602409  points:7688160
Cells per refinement level:
    0	1681263
    1	58961
    2	419621
    3	2379873
    4	537781
    5	953998
    6	445520

Surface refinement iteration 23
------------------------------

Marked for refinement due to surface intersection          : 0 cells.
Marked for refinement due to curvature/regions             : 10 cells.
Determined cells to refine in = 9.68487 s
Selected for refinement : 18 cells (out of 6477017)
Edge intersection testing:
    Number of edges             : 20602838
    Number of edges to retest   : 1555
    Number of intersected edges : 1392570
Refined mesh in = 9.13041 s
After refinement surface refinement iteration 23 : cells:6477143  faces:20602838  points:7688337
Cells per refinement level:
    0	1681263
    1	58961
    2	419613
    3	2379927
    4	537861
    5	953998
    6	445520
Balanced mesh in = 50.9014 s
After balancing surface refinement iteration 23 : cells:6477143  faces:20602838  points:7688337
Cells per refinement level:
    0	1681263
    1	58961
    2	419613
    3	2379927
    4	537861
    5	953998
    6	445520

Surface refinement iteration 24
------------------------------

Marked for refinement due to surface intersection          : 0 cells.
Marked for refinement due to curvature/regions             : 16 cells.
Determined cells to refine in = 8.9269 s
Selected for refinement : 16 cells (out of 6477143)
Edge intersection testing:
    Number of edges             : 20603243
    Number of edges to retest   : 1185
    Number of intersected edges : 1392662
Refined mesh in = 9.01782 s
After refinement surface refinement iteration 24 : cells:6477255  faces:20603243  points:7688518
Cells per refinement level:
    0	1681263
    1	58961
    2	419613
    3	2379911
    4	537989
    5	953998
    6	445520
Balanced mesh in = 49.993 s
After balancing surface refinement iteration 24 : cells:6477255  faces:20603243  points:7688518
Cells per refinement level:
    0	1681263
    1	58961
    2	419613
    3	2379911
    4	537989
    5	953998
    6	445520

Surface refinement iteration 25
------------------------------

Marked for refinement due to surface intersection          : 0 cells.
Marked for refinement due to curvature/regions             : 11 cells.
Determined cells to refine in = 10.1588 s
Selected for refinement : 19 cells (out of 6477255)
Edge intersection testing:
    Number of edges             : 20603699
    Number of edges to retest   : 1605
    Number of intersected edges : 1392738
Refined mesh in = 9.36896 s
After refinement surface refinement iteration 25 : cells:6477388  faces:20603699  points:7688708
Cells per refinement level:
    0	1681263
    1	58961
    2	419605
    3	2379964
    4	538077
    5	953998
    6	445520
Balanced mesh in = 50.6006 s
After balancing surface refinement iteration 25 : cells:6477388  faces:20603699  points:7688708
Cells per refinement level:
    0	1681263
    1	58961
    2	419605
    3	2379964
    4	538077
    5	953998
    6	445520

Surface refinement iteration 26
------------------------------

Marked for refinement due to surface intersection          : 0 cells.
Marked for refinement due to curvature/regions             : 15 cells.
Determined cells to refine in = 9.28426 s
Selected for refinement : 15 cells (out of 6477388)
Edge intersection testing:
    Number of edges             : 20604080
    Number of edges to retest   : 1125
    Number of intersected edges : 1392826
Refined mesh in = 9.16637 s
After refinement surface refinement iteration 26 : cells:6477493  faces:20604080  points:7688879
Cells per refinement level:
    0	1681263
    1	58961
    2	419605
    3	2379949
    4	538197
    5	953998
    6	445520
Balanced mesh in = 50.3149 s
After balancing surface refinement iteration 26 : cells:6477493  faces:20604080  points:7688879
Cells per refinement level:
    0	1681263
    1	58961
    2	419605
    3	2379949
    4	538197
    5	953998
    6	445520

Surface refinement iteration 27
------------------------------

Marked for refinement due to surface intersection          : 0 cells.
Marked for refinement due to curvature/regions             : 12 cells.
Determined cells to refine in = 9.70465 s
Selected for refinement : 20 cells (out of 6477493)
Edge intersection testing:
    Number of edges             : 20604560
    Number of edges to retest   : 1660
    Number of intersected edges : 1392906
Refined mesh in = 8.81741 s
After refinement surface refinement iteration 27 : cells:6477633  faces:20604560  points:7689079
Cells per refinement level:
    0	1681263
    1	58961
    2	419597
    3	2380001
    4	538293
    5	953998
    6	445520
Balanced mesh in = 48.6824 s
After balancing surface refinement iteration 27 : cells:6477633  faces:20604560  points:7689079
Cells per refinement level:
    0	1681263
    1	58961
    2	419597
    3	2380001
    4	538293
    5	953998
    6	445520

Surface refinement iteration 28
------------------------------

Marked for refinement due to surface intersection          : 0 cells.
Marked for refinement due to curvature/regions             : 16 cells.
Determined cells to refine in = 8.104 s
Selected for refinement : 16 cells (out of 6477633)
Edge intersection testing:
    Number of edges             : 20604965
    Number of edges to retest   : 1197
    Number of intersected edges : 1392998
Refined mesh in = 9.05652 s
After refinement surface refinement iteration 28 : cells:6477745  faces:20604965  points:7689260
Cells per refinement level:
    0	1681263
    1	58961
    2	419597
    3	2379985
    4	538421
    5	953998
    6	445520
Balanced mesh in = 49.3895 s
After balancing surface refinement iteration 28 : cells:6477745  faces:20604965  points:7689260
Cells per refinement level:
    0	1681263
    1	58961
    2	419597
    3	2379985
    4	538421
    5	953998
    6	445520

Surface refinement iteration 29
------------------------------

Marked for refinement due to surface intersection          : 0 cells.
Marked for refinement due to curvature/regions             : 8 cells.
Determined cells to refine in = 8.79425 s
Selected for refinement : 16 cells (out of 6477745)
Edge intersection testing:
    Number of edges             : 20605349
    Number of edges to retest   : 1440
    Number of intersected edges : 1393062
Refined mesh in = 9.12239 s
After refinement surface refinement iteration 29 : cells:6477857  faces:20605349  points:7689420
Cells per refinement level:
    0	1681263
    1	58961
    2	419589
    3	2380041
    4	538485
    5	953998
    6	445520
Balanced mesh in = 49.5307 s
After balancing surface refinement iteration 29 : cells:6477857  faces:20605349  points:7689420
Cells per refinement level:
    0	1681263
    1	58961
    2	419589
    3	2380041
    4	538485
    5	953998
    6	445520

Surface refinement iteration 30
------------------------------

Marked for refinement due to surface intersection          : 0 cells.
Marked for refinement due to curvature/regions             : 16 cells.
Determined cells to refine in = 8.10122 s
Selected for refinement : 16 cells (out of 6477857)
Edge intersection testing:
    Number of edges             : 20605757
    Number of edges to retest   : 1183
    Number of intersected edges : 1393158
Refined mesh in = 9.05282 s
After refinement surface refinement iteration 30 : cells:6477969  faces:20605757  points:7689604
Cells per refinement level:
    0	1681263
    1	58961
    2	419589
    3	2380025
    4	538613
    5	953998
    6	445520
Balanced mesh in = 49.4094 s
After balancing surface refinement iteration 30 : cells:6477969  faces:20605757  points:7689604
Cells per refinement level:
    0	1681263
    1	58961
    2	419589
    3	2380025
    4	538613
    5	953998
    6	445520

Surface refinement iteration 31
------------------------------

Marked for refinement due to surface intersection          : 0 cells.
Marked for refinement due to curvature/regions             : 9 cells.
Determined cells to refine in = 8.08401 s
Selected for refinement : 17 cells (out of 6477969)
Edge intersection testing:
    Number of edges             : 20606162
    Number of edges to retest   : 1497
    Number of intersected edges : 1393222
Refined mesh in = 8.80034 s
After refinement surface refinement iteration 31 : cells:6478088  faces:20606162  points:7689771
Cells per refinement level:
    0	1681263
    1	58961
    2	419581
    3	2380080
    4	538685
    5	953998
    6	445520
Balanced mesh in = 51.035 s
After balancing surface refinement iteration 31 : cells:6478088  faces:20606162  points:7689771
Cells per refinement level:
    0	1681263
    1	58961
    2	419581
    3	2380080
    4	538685
    5	953998
    6	445520

Surface refinement iteration 32
------------------------------

Marked for refinement due to surface intersection          : 0 cells.
Marked for refinement due to curvature/regions             : 16 cells.
Determined cells to refine in = 8.61384 s
Selected for refinement : 16 cells (out of 6478088)
Edge intersection testing:
    Number of edges             : 20606570
    Number of edges to retest   : 1189
    Number of intersected edges : 1393318
Refined mesh in = 9.17248 s
After refinement surface refinement iteration 32 : cells:6478200  faces:20606570  points:7689955
Cells per refinement level:
    0	1681263
    1	58961
    2	419581
    3	2380064
    4	538813
    5	953998
    6	445520
Balanced mesh in = 49.1369 s
After balancing surface refinement iteration 32 : cells:6478200  faces:20606570  points:7689955
Cells per refinement level:
    0	1681263
    1	58961
    2	419581
    3	2380064
    4	538813
    5	953998
    6	445520

Surface refinement iteration 33
------------------------------

Marked for refinement due to surface intersection          : 0 cells.
Marked for refinement due to curvature/regions             : 9 cells.
Determined cells to refine in = 8.20916 s
Selected for refinement : 17 cells (out of 6478200)
Edge intersection testing:
    Number of edges             : 20606978
    Number of edges to retest   : 1495
    Number of intersected edges : 1393386
Refined mesh in = 8.94426 s
After refinement surface refinement iteration 33 : cells:6478319  faces:20606978  points:7690125
Cells per refinement level:
    0	1681263
    1	58961
    2	419573
    3	2380119
    4	538885
    5	953998
    6	445520
Balanced mesh in = 49.3176 s
After balancing surface refinement iteration 33 : cells:6478319  faces:20606978  points:7690125
Cells per refinement level:
    0	1681263
    1	58961
    2	419573
    3	2380119
    4	538885
    5	953998
    6	445520

Surface refinement iteration 34
------------------------------

Marked for refinement due to surface intersection          : 0 cells.
Marked for refinement due to curvature/regions             : 16 cells.
Determined cells to refine in = 8.77794 s
Selected for refinement : 16 cells (out of 6478319)
Edge intersection testing:
    Number of edges             : 20607383
    Number of edges to retest   : 1182
    Number of intersected edges : 1393478
Refined mesh in = 9.14661 s
After refinement surface refinement iteration 34 : cells:6478431  faces:20607383  points:7690306
Cells per refinement level:
    0	1681263
    1	58961
    2	419573
    3	2380103
    4	539013
    5	953998
    6	445520
Balanced mesh in = 50.5265 s
After balancing surface refinement iteration 34 : cells:6478431  faces:20607383  points:7690306
Cells per refinement level:
    0	1681263
    1	58961
    2	419573
    3	2380103
    4	539013
    5	953998
    6	445520

Surface refinement iteration 35
------------------------------

Marked for refinement due to surface intersection          : 0 cells.
Marked for refinement due to curvature/regions             : 12 cells.
Determined cells to refine in = 7.93295 s
Selected for refinement : 20 cells (out of 6478431)
Edge intersection testing:
    Number of edges             : 20607860
    Number of edges to retest   : 1662
    Number of intersected edges : 1393554
Refined mesh in = 8.55954 s
After refinement surface refinement iteration 35 : cells:6478571  faces:20607860  points:7690503
Cells per refinement level:
    0	1681263
    1	58961
    2	419565
    3	2380155
    4	539109
    5	953998
    6	445520
Balanced mesh in = 50.6749 s
After balancing surface refinement iteration 35 : cells:6478571  faces:20607860  points:7690503
Cells per refinement level:
    0	1681263
    1	58961
    2	419565
    3	2380155
    4	539109
    5	953998
    6	445520

Surface refinement iteration 36
------------------------------

Marked for refinement due to surface intersection          : 0 cells.
Marked for refinement due to curvature/regions             : 15 cells.
Determined cells to refine in = 9.73962 s
Selected for refinement : 15 cells (out of 6478571)
Edge intersection testing:
    Number of edges             : 20608241
    Number of edges to retest   : 1131
    Number of intersected edges : 1393642
Refined mesh in = 9.26648 s
After refinement surface refinement iteration 36 : cells:6478676  faces:20608241  points:7690674
Cells per refinement level:
    0	1681263
    1	58961
    2	419565
    3	2380140
    4	539229
    5	953998
    6	445520
Balanced mesh in = 50.9539 s
After balancing surface refinement iteration 36 : cells:6478676  faces:20608241  points:7690674
Cells per refinement level:
    0	1681263
    1	58961
    2	419565
    3	2380140
    4	539229
    5	953998
    6	445520

Surface refinement iteration 37
------------------------------

Marked for refinement due to surface intersection          : 0 cells.
Marked for refinement due to curvature/regions             : 9 cells.
Determined cells to refine in = 11.2086 s
Selected for refinement : 17 cells (out of 6478676)
Edge intersection testing:
    Number of edges             : 20608649
    Number of edges to retest   : 1495
    Number of intersected edges : 1393710
Refined mesh in = 9.03248 s
After refinement surface refinement iteration 37 : cells:6478795  faces:20608649  points:7690844
Cells per refinement level:
    0	1681263
    1	58961
    2	419557
    3	2380195
    4	539301
    5	953998
    6	445520
Balanced mesh in = 49.3644 s
After balancing surface refinement iteration 37 : cells:6478795  faces:20608649  points:7690844
Cells per refinement level:
    0	1681263
    1	58961
    2	419557
    3	2380195
    4	539301
    5	953998
    6	445520

Surface refinement iteration 38
------------------------------

Marked for refinement due to surface intersection          : 0 cells.
Marked for refinement due to curvature/regions             : 15 cells.
Determined cells to refine in = 7.85178 s
Selected for refinement : 15 cells (out of 6478795)
Edge intersection testing:
    Number of edges             : 20609030
    Number of edges to retest   : 1122
    Number of intersected edges : 1393798
Refined mesh in = 8.90793 s
After refinement surface refinement iteration 38 : cells:6478900  faces:20609030  points:7691015
Cells per refinement level:
    0	1681263
    1	58961
    2	419557
    3	2380180
    4	539421
    5	953998
    6	445520
Balanced mesh in = 49.8131 s
After balancing surface refinement iteration 38 : cells:6478900  faces:20609030  points:7691015
Cells per refinement level:
    0	1681263
    1	58961
    2	419557
    3	2380180
    4	539421
    5	953998
    6	445520

Surface refinement iteration 39
------------------------------

Marked for refinement due to surface intersection          : 0 cells.
Marked for refinement due to curvature/regions             : 10 cells.
Determined cells to refine in = 10.3124 s
Selected for refinement : 18 cells (out of 6478900)
Edge intersection testing:
    Number of edges             : 20609459
    Number of edges to retest   : 1549
    Number of intersected edges : 1393866
Refined mesh in = 8.9801 s
After refinement surface refinement iteration 39 : cells:6479026  faces:20609459  points:7691192
Cells per refinement level:
    0	1681263
    1	58961
    2	419549
    3	2380234
    4	539501
    5	953998
    6	445520
Balanced mesh in = 53.8421 s
After balancing surface refinement iteration 39 : cells:6479026  faces:20609459  points:7691192
Cells per refinement level:
    0	1681263
    1	58961
    2	419549
    3	2380234
    4	539501
    5	953998
    6	445520

Surface refinement iteration 40
------------------------------

Marked for refinement due to surface intersection          : 0 cells.
Marked for refinement due to curvature/regions             : 16 cells.
Determined cells to refine in = 9.44287 s
Selected for refinement : 16 cells (out of 6479026)
Edge intersection testing:
    Number of edges             : 20609861
    Number of edges to retest   : 1193
    Number of intersected edges : 1393954
Refined mesh in = 9.38489 s
After refinement surface refinement iteration 40 : cells:6479138  faces:20609861  points:7691370
Cells per refinement level:
    0	1681263
    1	58961
    2	419549
    3	2380218
    4	539629
    5	953998
    6	445520
Balanced mesh in = 53.4741 s
After balancing surface refinement iteration 40 : cells:6479138  faces:20609861  points:7691370
Cells per refinement level:
    0	1681263
    1	58961
    2	419549
    3	2380218
    4	539629
    5	953998
    6	445520

Surface refinement iteration 41
------------------------------

Marked for refinement due to surface intersection          : 0 cells.
Marked for refinement due to curvature/regions             : 12 cells.
Determined cells to refine in = 8.69607 s
Selected for refinement : 20 cells (out of 6479138)
Edge intersection testing:
    Number of edges             : 20610332
    Number of edges to retest   : 1666
    Number of intersected edges : 1394022
Refined mesh in = 9.02889 s
After refinement surface refinement iteration 41 : cells:6479278  faces:20610332  points:7691561
Cells per refinement level:
    0	1681263
    1	58961
    2	419541
    3	2380270
    4	539725
    5	953998
    6	445520
Balanced mesh in = 51.7595 s
After balancing surface refinement iteration 41 : cells:6479278  faces:20610332  points:7691561
Cells per refinement level:
    0	1681263
    1	58961
    2	419541
    3	2380270
    4	539725
    5	953998
    6	445520

Surface refinement iteration 42
------------------------------

Marked for refinement due to surface intersection          : 0 cells.
Marked for refinement due to curvature/regions             : 16 cells.
Determined cells to refine in = 8.75537 s
Selected for refinement : 16 cells (out of 6479278)
Edge intersection testing:
    Number of edges             : 20610734
    Number of edges to retest   : 1196
    Number of intersected edges : 1394110
Refined mesh in = 8.93539 s
After refinement surface refinement iteration 42 : cells:6479390  faces:20610734  points:7691739
Cells per refinement level:
    0	1681263
    1	58961
    2	419541
    3	2380254
    4	539853
    5	953998
    6	445520
Balanced mesh in = 49.9698 s
After balancing surface refinement iteration 42 : cells:6479390  faces:20610734  points:7691739
Cells per refinement level:
    0	1681263
    1	58961
    2	419541
    3	2380254
    4	539853
    5	953998
    6	445520

Surface refinement iteration 43
------------------------------

Marked for refinement due to surface intersection          : 0 cells.
Marked for refinement due to curvature/regions             : 12 cells.
Determined cells to refine in = 10.9664 s
Selected for refinement : 20 cells (out of 6479390)
Edge intersection testing:
    Number of edges             : 20611208
    Number of edges to retest   : 1667
    Number of intersected edges : 1394182
Refined mesh in = 9.1643 s
After refinement surface refinement iteration 43 : cells:6479530  faces:20611208  points:7691933
Cells per refinement level:
    0	1681263
    1	58961
    2	419533
    3	2380306
    4	539949
    5	953998
    6	445520
Balanced mesh in = 51.243 s
After balancing surface refinement iteration 43 : cells:6479530  faces:20611208  points:7691933
Cells per refinement level:
    0	1681263
    1	58961
    2	419533
    3	2380306
    4	539949
    5	953998
    6	445520

Surface refinement iteration 44
------------------------------

Marked for refinement due to surface intersection          : 0 cells.
Marked for refinement due to curvature/regions             : 16 cells.
Determined cells to refine in = 8.30977 s
Selected for refinement : 16 cells (out of 6479530)
Edge intersection testing:
    Number of edges             : 20611607
    Number of edges to retest   : 1198
    Number of intersected edges : 1394266
Refined mesh in = 9.35448 s
After refinement surface refinement iteration 44 : cells:6479642  faces:20611607  points:7692108
Cells per refinement level:
    0	1681263
    1	58961
    2	419533
    3	2380290
    4	540077
    5	953998
    6	445520
Balanced mesh in = 52.9134 s
After balancing surface refinement iteration 44 : cells:6479642  faces:20611607  points:7692108
Cells per refinement level:
    0	1681263
    1	58961
    2	419533
    3	2380290
    4	540077
    5	953998
    6	445520

Surface refinement iteration 45
------------------------------

Marked for refinement due to surface intersection          : 0 cells.
Marked for refinement due to curvature/regions             : 10 cells.
Determined cells to refine in = 9.74598 s
Selected for refinement : 18 cells (out of 6479642)
Edge intersection testing:
    Number of edges             : 20612039
    Number of edges to retest   : 1553
    Number of intersected edges : 1394338
Refined mesh in = 9.15282 s
After refinement surface refinement iteration 45 : cells:6479768  faces:20612039  points:7692288
Cells per refinement level:
    0	1681263
    1	58961
    2	419525
    3	2380344
    4	540157
    5	953998
    6	445520
Balanced mesh in = 50.6736 s
After balancing surface refinement iteration 45 : cells:6479768  faces:20612039  points:7692288
Cells per refinement level:
    0	1681263
    1	58961
    2	419525
    3	2380344
    4	540157
    5	953998
    6	445520

Surface refinement iteration 46
------------------------------

Marked for refinement due to surface intersection          : 0 cells.
Marked for refinement due to curvature/regions             : 16 cells.
Determined cells to refine in = 9.37771 s
Selected for refinement : 16 cells (out of 6479768)
Edge intersection testing:
    Number of edges             : 20612447
    Number of edges to retest   : 1189
    Number of intersected edges : 1394434
Refined mesh in = 9.06963 s
After refinement surface refinement iteration 46 : cells:6479880  faces:20612447  points:7692472
Cells per refinement level:
    0	1681263
    1	58961
    2	419525
    3	2380328
    4	540285
    5	953998
    6	445520
Balanced mesh in = 51.1267 s
After balancing surface refinement iteration 46 : cells:6479880  faces:20612447  points:7692472
Cells per refinement level:
    0	1681263
    1	58961
    2	419525
    3	2380328
    4	540285
    5	953998
    6	445520

Surface refinement iteration 47
------------------------------

Marked for refinement due to surface intersection          : 0 cells.
Marked for refinement due to curvature/regions             : 10 cells.
Determined cells to refine in = 8.1619 s
Selected for refinement : 18 cells (out of 6479880)
Edge intersection testing:
    Number of edges             : 20612873
    Number of edges to retest   : 1554
    Number of intersected edges : 1394498
Refined mesh in = 8.63377 s
After refinement surface refinement iteration 47 : cells:6480006  faces:20612873  points:7692646
Cells per refinement level:
    0	1681263
    1	58961
    2	419517
    3	2380382
    4	540365
    5	953998
    6	445520
Balanced mesh in = 49.4575 s
After balancing surface refinement iteration 47 : cells:6480006  faces:20612873  points:7692646
Cells per refinement level:
    0	1681263
    1	58961
    2	419517
    3	2380382
    4	540365
    5	953998
    6	445520

Surface refinement iteration 48
------------------------------

Marked for refinement due to surface intersection          : 0 cells.
Marked for refinement due to curvature/regions             : 16 cells.
Determined cells to refine in = 7.64121 s
Selected for refinement : 16 cells (out of 6480006)
Edge intersection testing:
    Number of edges             : 20613275
    Number of edges to retest   : 1193
    Number of intersected edges : 1394586
Refined mesh in = 9.29074 s
After refinement surface refinement iteration 48 : cells:6480118  faces:20613275  points:7692824
Cells per refinement level:
    0	1681263
    1	58961
    2	419517
    3	2380366
    4	540493
    5	953998
    6	445520
Balanced mesh in = 52.5325 s
After balancing surface refinement iteration 48 : cells:6480118  faces:20613275  points:7692824
Cells per refinement level:
    0	1681263
    1	58961
    2	419517
    3	2380366
    4	540493
    5	953998
    6	445520

Surface refinement iteration 49
------------------------------

Marked for refinement due to surface intersection          : 0 cells.
Marked for refinement due to curvature/regions             : 11 cells.
Determined cells to refine in = 8.35706 s
Selected for refinement : 19 cells (out of 6480118)
Edge intersection testing:
    Number of edges             : 20613725
    Number of edges to retest   : 1609
    Number of intersected edges : 1394654
Refined mesh in = 9.04796 s
After refinement surface refinement iteration 49 : cells:6480251  faces:20613725  points:7693008
Cells per refinement level:
    0	1681263
    1	58961
    2	419509
    3	2380419
    4	540581
    5	953998
    6	445520
Balanced mesh in = 52.1419 s
After balancing surface refinement iteration 49 : cells:6480251  faces:20613725  points:7693008
Cells per refinement level:
    0	1681263
    1	58961
    2	419509
    3	2380419
    4	540581
    5	953998
    6	445520

Surface refinement iteration 50
------------------------------

Marked for refinement due to surface intersection          : 0 cells.
Marked for refinement due to curvature/regions             : 15 cells.
Determined cells to refine in = 9.06097 s
Selected for refinement : 15 cells (out of 6480251)
Edge intersection testing:
    Number of edges             : 20614106
    Number of edges to retest   : 1125
    Number of intersected edges : 1394742
Refined mesh in = 8.96172 s
After refinement surface refinement iteration 50 : cells:6480356  faces:20614106  points:7693179
Cells per refinement level:
    0	1681263
    1	58961
    2	419509
    3	2380404
    4	540701
    5	953998
    6	445520
Balanced mesh in = 52.4157 s
After balancing surface refinement iteration 50 : cells:6480356  faces:20614106  points:7693179
Cells per refinement level:
    0	1681263
    1	58961
    2	419509
    3	2380404
    4	540701
    5	953998
    6	445520

Surface refinement iteration 51
------------------------------

Marked for refinement due to surface intersection          : 0 cells.
Marked for refinement due to curvature/regions             : 10 cells.
Determined cells to refine in = 12.2933 s
Selected for refinement : 18 cells (out of 6480356)
Edge intersection testing:
    Number of edges             : 20614538
    Number of edges to retest   : 1550
    Number of intersected edges : 1394814
Refined mesh in = 9.14686 s
After refinement surface refinement iteration 51 : cells:6480482  faces:20614538  points:7693359
Cells per refinement level:
    0	1681263
    1	58961
    2	419501
    3	2380458
    4	540781
    5	953998
    6	445520
Balanced mesh in = 53.0109 s
After balancing surface refinement iteration 51 : cells:6480482  faces:20614538  points:7693359
Cells per refinement level:
    0	1681263
    1	58961
    2	419501
    3	2380458
    4	540781
    5	953998
    6	445520

Surface refinement iteration 52
------------------------------

Marked for refinement due to surface intersection          : 0 cells.
Marked for refinement due to curvature/regions             : 16 cells.
Determined cells to refine in = 7.71508 s
Selected for refinement : 16 cells (out of 6480482)
Edge intersection testing:
    Number of edges             : 20614943
    Number of edges to retest   : 1188
    Number of intersected edges : 1394906
Refined mesh in = 9.06258 s
After refinement surface refinement iteration 52 : cells:6480594  faces:20614943  points:7693540
Cells per refinement level:
    0	1681263
    1	58961
    2	419501
    3	2380442
    4	540909
    5	953998
    6	445520
Balanced mesh in = 52.4795 s
After balancing surface refinement iteration 52 : cells:6480594  faces:20614943  points:7693540
Cells per refinement level:
    0	1681263
    1	58961
    2	419501
    3	2380442
    4	540909
    5	953998
    6	445520

Surface refinement iteration 53
------------------------------

Marked for refinement due to surface intersection          : 0 cells.
Marked for refinement due to curvature/regions             : 9 cells.
Determined cells to refine in = 8.11502 s
Selected for refinement : 17 cells (out of 6480594)
Edge intersection testing:
    Number of edges             : 20615348
    Number of edges to retest   : 1497
    Number of intersected edges : 1394970
Refined mesh in = 8.98952 s
After refinement surface refinement iteration 53 : cells:6480713  faces:20615348  points:7693707
Cells per refinement level:
    0	1681263
    1	58961
    2	419493
    3	2380497
    4	540981
    5	953998
    6	445520
Balanced mesh in = 52.7164 s
After balancing surface refinement iteration 53 : cells:6480713  faces:20615348  points:7693707
Cells per refinement level:
    0	1681263
    1	58961
    2	419493
    3	2380497
    4	540981
    5	953998
    6	445520

Surface refinement iteration 54
------------------------------

Marked for refinement due to surface intersection          : 0 cells.
Marked for refinement due to curvature/regions             : 15 cells.
Determined cells to refine in = 7.58628 s
Selected for refinement : 15 cells (out of 6480713)
Edge intersection testing:
    Number of edges             : 20615729
    Number of edges to retest   : 1125
    Number of intersected edges : 1395058
Refined mesh in = 8.793 s
After refinement surface refinement iteration 54 : cells:6480818  faces:20615729  points:7693878
Cells per refinement level:
    0	1681263
    1	58961
    2	419493
    3	2380482
    4	541101
    5	953998
    6	445520
Balanced mesh in = 50.2925 s
After balancing surface refinement iteration 54 : cells:6480818  faces:20615729  points:7693878
Cells per refinement level:
    0	1681263
    1	58961
    2	419493
    3	2380482
    4	541101
    5	953998
    6	445520

Surface refinement iteration 55
------------------------------

Marked for refinement due to surface intersection          : 0 cells.
Marked for refinement due to curvature/regions             : 10 cells.
Determined cells to refine in = 8.41501 s
Selected for refinement : 18 cells (out of 6480818)
Edge intersection testing:
    Number of edges             : 20616161
    Number of edges to retest   : 1547
    Number of intersected edges : 1395130
Refined mesh in = 8.92146 s
After refinement surface refinement iteration 55 : cells:6480944  faces:20616161  points:7694058
Cells per refinement level:
    0	1681263
    1	58961
    2	419485
    3	2380536
    4	541181
    5	953998
    6	445520
Balanced mesh in = 49.3871 s
After balancing surface refinement iteration 55 : cells:6480944  faces:20616161  points:7694058
Cells per refinement level:
    0	1681263
    1	58961
    2	419485
    3	2380536
    4	541181
    5	953998
    6	445520

Surface refinement iteration 56
------------------------------

Marked for refinement due to surface intersection          : 0 cells.
Marked for refinement due to curvature/regions             : 15 cells.
Determined cells to refine in = 8.15404 s
Selected for refinement : 15 cells (out of 6480944)
Edge intersection testing:
    Number of edges             : 20616539
    Number of edges to retest   : 1124
    Number of intersected edges : 1395214
Refined mesh in = 8.88435 s
After refinement surface refinement iteration 56 : cells:6481049  faces:20616539  points:7694226
Cells per refinement level:
    0	1681263
    1	58961
    2	419485
    3	2380521
    4	541301
    5	953998
    6	445520
Balanced mesh in = 50.0086 s
After balancing surface refinement iteration 56 : cells:6481049  faces:20616539  points:7694226
Cells per refinement level:
    0	1681263
    1	58961
    2	419485
    3	2380521
    4	541301
    5	953998
    6	445520

Surface refinement iteration 57
------------------------------

Marked for refinement due to surface intersection          : 0 cells.
Marked for refinement due to curvature/regions             : 10 cells.
Determined cells to refine in = 11.3896 s
Selected for refinement : 18 cells (out of 6481049)
Edge intersection testing:
    Number of edges             : 20616971
    Number of edges to retest   : 1547
    Number of intersected edges : 1395286
Refined mesh in = 9.24479 s
After refinement surface refinement iteration 57 : cells:6481175  faces:20616971  points:7694406
Cells per refinement level:
    0	1681263
    1	58961
    2	419477
    3	2380575
    4	541381
    5	953998
    6	445520
Balanced mesh in = 50.2817 s
After balancing surface refinement iteration 57 : cells:6481175  faces:20616971  points:7694406
Cells per refinement level:
    0	1681263
    1	58961
    2	419477
    3	2380575
    4	541381
    5	953998
    6	445520

Surface refinement iteration 58
------------------------------

Marked for refinement due to surface intersection          : 0 cells.
Marked for refinement due to curvature/regions             : 15 cells.
Determined cells to refine in = 10.2941 s
Selected for refinement : 15 cells (out of 6481175)
Edge intersection testing:
    Number of edges             : 20617355
    Number of edges to retest   : 1126
    Number of intersected edges : 1395378
Refined mesh in = 9.00087 s
After refinement surface refinement iteration 58 : cells:6481280  faces:20617355  points:7694580
Cells per refinement level:
    0	1681263
    1	58961
    2	419477
    3	2380560
    4	541501
    5	953998
    6	445520
Balanced mesh in = 52.4203 s
After balancing surface refinement iteration 58 : cells:6481280  faces:20617355  points:7694580
Cells per refinement level:
    0	1681263
    1	58961
    2	419477
    3	2380560
    4	541501
    5	953998
    6	445520

Surface refinement iteration 59
------------------------------

Marked for refinement due to surface intersection          : 0 cells.
Marked for refinement due to curvature/regions             : 10 cells.
Determined cells to refine in = 8.35804 s
Selected for refinement : 18 cells (out of 6481280)
Edge intersection testing:
    Number of edges             : 20617784
    Number of edges to retest   : 1552
    Number of intersected edges : 1395446
Refined mesh in = 9.17348 s
After refinement surface refinement iteration 59 : cells:6481406  faces:20617784  points:7694757
Cells per refinement level:
    0	1681263
    1	58961
    2	419469
    3	2380614
    4	541581
    5	953998
    6	445520
Balanced mesh in = 51.9877 s
After balancing surface refinement iteration 59 : cells:6481406  faces:20617784  points:7694757
Cells per refinement level:
    0	1681263
    1	58961
    2	419469
    3	2380614
    4	541581
    5	953998
    6	445520

Surface refinement iteration 60
------------------------------

Marked for refinement due to surface intersection          : 0 cells.
Marked for refinement due to curvature/regions             : 16 cells.
Determined cells to refine in = 7.92989 s
Selected for refinement : 16 cells (out of 6481406)
Edge intersection testing:
    Number of edges             : 20618192
    Number of edges to retest   : 1189
    Number of intersected edges : 1395542
Refined mesh in = 8.89328 s
After refinement surface refinement iteration 60 : cells:6481518  faces:20618192  points:7694941
Cells per refinement level:
    0	1681263
    1	58961
    2	419469
    3	2380598
    4	541709
    5	953998
    6	445520
Balanced mesh in = 50.3239 s
After balancing surface refinement iteration 60 : cells:6481518  faces:20618192  points:7694941
Cells per refinement level:
    0	1681263
    1	58961
    2	419469
    3	2380598
    4	541709
    5	953998
    6	445520

Surface refinement iteration 61
------------------------------

Marked for refinement due to surface intersection          : 0 cells.
Marked for refinement due to curvature/regions             : 8 cells.
Determined cells to refine in = 8.88504 s
Selected for refinement : 16 cells (out of 6481518)
Edge intersection testing:
    Number of edges             : 20618576
    Number of edges to retest   : 1440
    Number of intersected edges : 1395606
Refined mesh in = 9.11911 s
After refinement surface refinement iteration 61 : cells:6481630  faces:20618576  points:7695101
Cells per refinement level:
    0	1681263
    1	58961
    2	419461
    3	2380654
    4	541773
    5	953998
    6	445520
Balanced mesh in = 51.6819 s
After balancing surface refinement iteration 61 : cells:6481630  faces:20618576  points:7695101
Cells per refinement level:
    0	1681263
    1	58961
    2	419461
    3	2380654
    4	541773
    5	953998
    6	445520

Surface refinement iteration 62
------------------------------

Marked for refinement due to surface intersection          : 0 cells.
Marked for refinement due to curvature/regions             : 16 cells.
Determined cells to refine in = 7.91881 s
Selected for refinement : 16 cells (out of 6481630)
Edge intersection testing:
    Number of edges             : 20618984
    Number of edges to retest   : 1186
    Number of intersected edges : 1395702
Refined mesh in = 9.11184 s
After refinement surface refinement iteration 62 : cells:6481742  faces:20618984  points:7695285
Cells per refinement level:
    0	1681263
    1	58961
    2	419461
    3	2380638
    4	541901
    5	953998
    6	445520
Balanced mesh in = 51.5956 s
After balancing surface refinement iteration 62 : cells:6481742  faces:20618984  points:7695285
Cells per refinement level:
    0	1681263
    1	58961
    2	419461
    3	2380638
    4	541901
    5	953998
    6	445520

Surface refinement iteration 63
------------------------------

Marked for refinement due to surface intersection          : 0 cells.
Marked for refinement due to curvature/regions             : 9 cells.
Determined cells to refine in = 9.96464 s
Selected for refinement : 17 cells (out of 6481742)
Edge intersection testing:
    Number of edges             : 20619392
    Number of edges to retest   : 1495
    Number of intersected edges : 1395770
Refined mesh in = 9.199 s
After refinement surface refinement iteration 63 : cells:6481861  faces:20619392  points:7695455
Cells per refinement level:
    0	1681263
    1	58961
    2	419453
    3	2380693
    4	541973
    5	953998
    6	445520
Balanced mesh in = 48.5896 s
After balancing surface refinement iteration 63 : cells:6481861  faces:20619392  points:7695455
Cells per refinement level:
    0	1681263
    1	58961
    2	419453
    3	2380693
    4	541973
    5	953998
    6	445520

Surface refinement iteration 64
------------------------------

Marked for refinement due to surface intersection          : 0 cells.
Marked for refinement due to curvature/regions             : 16 cells.
Determined cells to refine in = 7.63187 s
Selected for refinement : 16 cells (out of 6481861)
Edge intersection testing:
    Number of edges             : 20619800
    Number of edges to retest   : 1183
    Number of intersected edges : 1395866
Refined mesh in = 8.74525 s
After refinement surface refinement iteration 64 : cells:6481973  faces:20619800  points:7695639
Cells per refinement level:
    0	1681263
    1	58961
    2	419453
    3	2380677
    4	542101
    5	953998
    6	445520
Balanced mesh in = 50.6252 s
After balancing surface refinement iteration 64 : cells:6481973  faces:20619800  points:7695639
Cells per refinement level:
    0	1681263
    1	58961
    2	419453
    3	2380677
    4	542101
    5	953998
    6	445520

Surface refinement iteration 65
------------------------------

Marked for refinement due to surface intersection          : 0 cells.
Marked for refinement due to curvature/regions             : 9 cells.
Determined cells to refine in = 10.3173 s
Selected for refinement : 17 cells (out of 6481973)
Edge intersection testing:
    Number of edges             : 20620208
    Number of edges to retest   : 1495
    Number of intersected edges : 1395934
Refined mesh in = 9.04557 s
After refinement surface refinement iteration 65 : cells:6482092  faces:20620208  points:7695809
Cells per refinement level:
    0	1681263
    1	58961
    2	419445
    3	2380732
    4	542173
    5	953998
    6	445520
Balanced mesh in = 49.4834 s
After balancing surface refinement iteration 65 : cells:6482092  faces:20620208  points:7695809
Cells per refinement level:
    0	1681263
    1	58961
    2	419445
    3	2380732
    4	542173
    5	953998
    6	445520

Surface refinement iteration 66
------------------------------

Marked for refinement due to surface intersection          : 0 cells.
Marked for refinement due to curvature/regions             : 16 cells.
Determined cells to refine in = 10.3448 s
Selected for refinement : 16 cells (out of 6482092)
Edge intersection testing:
    Number of edges             : 20620616
    Number of edges to retest   : 1186
    Number of intersected edges : 1396030
Refined mesh in = 9.03323 s
After refinement surface refinement iteration 66 : cells:6482204  faces:20620616  points:7695993
Cells per refinement level:
    0	1681263
    1	58961
    2	419445
    3	2380716
    4	542301
    5	953998
    6	445520
Balanced mesh in = 50.2281 s
After balancing surface refinement iteration 66 : cells:6482204  faces:20620616  points:7695993
Cells per refinement level:
    0	1681263
    1	58961
    2	419445
    3	2380716
    4	542301
    5	953998
    6	445520

Surface refinement iteration 67
------------------------------

Marked for refinement due to surface intersection          : 0 cells.
Marked for refinement due to curvature/regions             : 10 cells.
Determined cells to refine in = 10.4801 s
Selected for refinement : 18 cells (out of 6482204)
Edge intersection testing:
    Number of edges             : 20621048
    Number of edges to retest   : 1553
    Number of intersected edges : 1396102
Refined mesh in = 9.08159 s
After refinement surface refinement iteration 67 : cells:6482330  faces:20621048  points:7696173
Cells per refinement level:
    0	1681263
    1	58961
    2	419437
    3	2380770
    4	542381
    5	953998
    6	445520
Balanced mesh in = 54.8203 s
After balancing surface refinement iteration 67 : cells:6482330  faces:20621048  points:7696173
Cells per refinement level:
    0	1681263
    1	58961
    2	419437
    3	2380770
    4	542381
    5	953998
    6	445520

Surface refinement iteration 68
------------------------------

Marked for refinement due to surface intersection          : 0 cells.
Marked for refinement due to curvature/regions             : 16 cells.
Determined cells to refine in = 10.1431 s
Selected for refinement : 16 cells (out of 6482330)
Edge intersection testing:
    Number of edges             : 20621456
    Number of edges to retest   : 1192
    Number of intersected edges : 1396198
Refined mesh in = 8.955 s
After refinement surface refinement iteration 68 : cells:6482442  faces:20621456  points:7696357
Cells per refinement level:
    0	1681263
    1	58961
    2	419437
    3	2380754
    4	542509
    5	953998
    6	445520
Balanced mesh in = 51.4505 s
After balancing surface refinement iteration 68 : cells:6482442  faces:20621456  points:7696357
Cells per refinement level:
    0	1681263
    1	58961
    2	419437
    3	2380754
    4	542509
    5	953998
    6	445520

Surface refinement iteration 69
------------------------------

Marked for refinement due to surface intersection          : 0 cells.
Marked for refinement due to curvature/regions             : 9 cells.
Determined cells to refine in = 8.4228 s
Selected for refinement : 17 cells (out of 6482442)
Edge intersection testing:
    Number of edges             : 20621864
    Number of edges to retest   : 1498
    Number of intersected edges : 1396266
Refined mesh in = 9.00303 s
After refinement surface refinement iteration 69 : cells:6482561  faces:20621864  points:7696527
Cells per refinement level:
    0	1681263
    1	58961
    2	419429
    3	2380809
    4	542581
    5	953998
    6	445520
Balanced mesh in = 53.644 s
After balancing surface refinement iteration 69 : cells:6482561  faces:20621864  points:7696527
Cells per refinement level:
    0	1681263
    1	58961
    2	419429
    3	2380809
    4	542581
    5	953998
    6	445520

Surface refinement iteration 70
------------------------------

Marked for refinement due to surface intersection          : 0 cells.
Marked for refinement due to curvature/regions             : 15 cells.
Determined cells to refine in = 8.61778 s
Selected for refinement : 15 cells (out of 6482561)
Edge intersection testing:
    Number of edges             : 20622248
    Number of edges to retest   : 1126
    Number of intersected edges : 1396358
Refined mesh in = 9.17827 s
[...]
Moving mesh using displacement scaling : min:0  max:1
Checking faces in error :
    non-orthogonality > 65  degrees                        : 0
    faces with face pyramid volume < 1e-13                 : 0
    faces with face-decomposition tet quality < 1e-15      : 0
    faces with concavity > 80  degrees                     : 0
    faces with skewness > 4   (internal) or 20  (boundary) : 0
    faces with interpolation weights (0..1)  < 0.02        : 0
    faces with volume ratio of neighbour cells < 0.01      : 0
    faces with face twist < 0.02                           : 0
    faces on cells with determinant < 0.001                : 0
Successfully moved mesh
Moved mesh in = 187.584 s



Morph iteration 8
-----------------
Calculating patchDisplacement as distance to nearest surface point ...
Wanted displacement : average:4.88357e-06 min:0 max:0.000307806
Calculated surface displacement in = 1.31812 s


Detecting near surfaces ...
Overriding nearest with intersection of close gaps at 47733 out of 565589 points.
Overriding displacement on features :
   implicit features    : false
   explicit features    : true
   multi-patch features : false

Detected 368 baffle edges out of 1107430 edges.
Initially selected 11661 points out of 565589 for reverse attraction.
Selected 35579 points out of 565589 for reverse attraction.
Stringing feature edges : changed 0 points
Attraction:
     linear   : max:(5.54922e-05 -0.000452762 -5.56824e-05) avg:(5.21223e-08 1.76184e-07 3.20121e-08)
     feature  : max:(0 0 0) avg:(0 0 0)
Feature analysis : total master points:558462 attraction to :
    feature point   : 0
    feature edge    : 0
    nearest surface : 0
    rest            : 558462

--> FOAM Warning : Displacement (-1.23143e-06 7.41227e-11 -1.48964e-06) at mesh point 20518 coord (0.0190531 -1.83824 0.0174856) points through the surrounding patch faces
Smoothing displacement ...
Iteration 0
Iteration 10
Iteration 20
Iteration 30
Iteration 40
Iteration 50
Iteration 60
Iteration 70
Iteration 80
Iteration 90
Displacement smoothed in = 35.8194 s


Moving mesh ...

Iteration 0
Moving mesh using displacement scaling : min:1  max:1
Checking faces in error :
    non-orthogonality > 65  degrees                        : 3948
    faces with face pyramid volume < 1e-13                 : 246
    faces with face-decomposition tet quality < 1e-15      : 467
    faces with concavity > 80  degrees                     : 42
    faces with skewness > 4   (internal) or 20  (boundary) : 0
    faces with interpolation weights (0..1)  < 0.02        : 0
    faces with volume ratio of neighbour cells < 0.01      : 0
    faces with face twist < 0.02                           : 27
    faces on cells with determinant < 0.001                : 0

Iteration 1
Moving mesh using displacement scaling : min:0.75  max:1
Checking faces in error :
    non-orthogonality > 65  degrees                        : 3790
    faces with face pyramid volume < 1e-13                 : 146
    faces with face-decomposition tet quality < 1e-15      : 450
    faces with concavity > 80  degrees                     : 28
    faces with skewness > 4   (internal) or 20  (boundary) : 0
    faces with interpolation weights (0..1)  < 0.02        : 0
    faces with volume ratio of neighbour cells < 0.01      : 0
    faces with face twist < 0.02                           : 32
    faces on cells with determinant < 0.001                : 0

Iteration 2
Moving mesh using displacement scaling : min:0.5625  max:1
Checking faces in error :
    non-orthogonality > 65  degrees                        : 3576
    faces with face pyramid volume < 1e-13                 : 130
    faces with face-decomposition tet quality < 1e-15      : 286
    faces with concavity > 80  degrees                     : 34
    faces with skewness > 4   (internal) or 20  (boundary) : 0
    faces with interpolation weights (0..1)  < 0.02        : 0
    faces with volume ratio of neighbour cells < 0.01      : 0
    faces with face twist < 0.02                           : 36
    faces on cells with determinant < 0.001                : 0

Iteration 3
Moving mesh using displacement scaling : min:0.421875  max:1
Checking faces in error :
    non-orthogonality > 65  degrees                        : 3382
    faces with face pyramid volume < 1e-13                 : 80
    faces with face-decomposition tet quality < 1e-15      : 234
    faces with concavity > 80  degrees                     : 34
    faces with skewness > 4   (internal) or 20  (boundary) : 0
    faces with interpolation weights (0..1)  < 0.02        : 0
    faces with volume ratio of neighbour cells < 0.01      : 0
    faces with face twist < 0.02                           : 55
    faces on cells with determinant < 0.001                : 0

Iteration 4
Moving mesh using displacement scaling : min:0.316406  max:1
Checking faces in error :
    non-orthogonality > 65  degrees                        : 3296
    faces with face pyramid volume < 1e-13                 : 62
    faces with face-decomposition tet quality < 1e-15      : 154
    faces with concavity > 80  degrees                     : 34
    faces with skewness > 4   (internal) or 20  (boundary) : 0
    faces with interpolation weights (0..1)  < 0.02        : 0
    faces with volume ratio of neighbour cells < 0.01      : 0
    faces with face twist < 0.02                           : 79
    faces on cells with determinant < 0.001                : 0

Iteration 5
Displacement scaling for error reduction set to 0.
Moving mesh using displacement scaling : min:0.237305  max:1
Checking faces in error :
    non-orthogonality > 65  degrees                        : 3254
    faces with face pyramid volume < 1e-13                 : 58
    faces with face-decomposition tet quality < 1e-15      : 130
    faces with concavity > 80  degrees                     : 36
    faces with skewness > 4   (internal) or 20  (boundary) : 0
    faces with interpolation weights (0..1)  < 0.02        : 0
    faces with volume ratio of neighbour cells < 0.01      : 0
    faces with face twist < 0.02                           : 88
    faces on cells with determinant < 0.001                : 0

Iteration 6
Moving mesh using displacement scaling : min:0  max:1
Checking faces in error :
    non-orthogonality > 65  degrees                        : 24
    faces with face pyramid volume < 1e-13                 : 0
    faces with face-decomposition tet quality < 1e-15      : 0
    faces with concavity > 80  degrees                     : 0
    faces with skewness > 4   (internal) or 20  (boundary) : 0
    faces with interpolation weights (0..1)  < 0.02        : 0
    faces with volume ratio of neighbour cells < 0.01      : 0
    faces with face twist < 0.02                           : 2
    faces on cells with determinant < 0.001                : 0

Iteration 7
Moving mesh using displacement scaling : min:0  max:1
Checking faces in error :
    non-orthogonality > 65  degrees                        : 1
    faces with face pyramid volume < 1e-13                 : 0
    faces with face-decomposition tet quality < 1e-15      : 0
    faces with concavity > 80  degrees                     : 0
    faces with skewness > 4   (internal) or 20  (boundary) : 0
    faces with interpolation weights (0..1)  < 0.02        : 0
    faces with volume ratio of neighbour cells < 0.01      : 0
    faces with face twist < 0.02                           : 0
    faces on cells with determinant < 0.001                : 0

Iteration 8
Moving mesh using displacement scaling : min:0  max:1
Checking faces in error :
    non-orthogonality > 65  degrees                        : 0
    faces with face pyramid volume < 1e-13                 : 0
    faces with face-decomposition tet quality < 1e-15      : 0
    faces with concavity > 80  degrees                     : 0
    faces with skewness > 4   (internal) or 20  (boundary) : 0
    faces with interpolation weights (0..1)  < 0.02        : 0
    faces with volume ratio of neighbour cells < 0.01      : 0
    faces with face twist < 0.02                           : 0
    faces on cells with determinant < 0.001                : 0
Successfully moved mesh
Moved mesh in = 187.643 s



Morph iteration 9
-----------------
Calculating patchDisplacement as distance to nearest surface point ...
Wanted displacement : average:2.92607e-06 min:0 max:0.000312275
Calculated surface displacement in = 1.31178 s


Detecting near surfaces ...
Overriding nearest with intersection of close gaps at 47717 out of 565589 points.
Overriding displacement on features :
   implicit features    : false
   explicit features    : true
   multi-patch features : false

Detected 418 baffle edges out of 1107430 edges.
Initially selected 11661 points out of 565589 for reverse attraction.
Selected 35587 points out of 565589 for reverse attraction.
Stringing feature edges : changed 0 points
Attraction:
     linear   : max:(5.45702e-05 -0.000452762 -5.48037e-05) avg:(4.05766e-08 1.00809e-07 2.6107e-08)
     feature  : max:(0 0 0) avg:(0 0 0)
Feature analysis : total master points:558462 attraction to :
    feature point   : 0
    feature edge    : 0
    nearest surface : 0
    rest            : 558462

--> FOAM Warning : Displacement (-8.84082e-08 0 3.46945e-18) at mesh point 27481 coord (0.0190501 -1.83824 0.0162477) points through the surrounding patch faces
Smoothing displacement ...
Iteration 0
Iteration 10
Iteration 20
Iteration 30
Iteration 40
Iteration 50
Iteration 60
Iteration 70
Iteration 80
Iteration 90
Displacement smoothed in = 33.8062 s


Moving mesh ...

Iteration 0
Moving mesh using displacement scaling : min:1  max:1
Checking faces in error :
    non-orthogonality > 65  degrees                        : 3888
    faces with face pyramid volume < 1e-13                 : 64
    faces with face-decomposition tet quality < 1e-15      : 179
    faces with concavity > 80  degrees                     : 12
    faces with skewness > 4   (internal) or 20  (boundary) : 0
    faces with interpolation weights (0..1)  < 0.02        : 0
    faces with volume ratio of neighbour cells < 0.01      : 0
    faces with face twist < 0.02                           : 80
    faces on cells with determinant < 0.001                : 0

Iteration 1
Moving mesh using displacement scaling : min:0.75  max:1
Checking faces in error :
    non-orthogonality > 65  degrees                        : 3830
    faces with face pyramid volume < 1e-13                 : 64
    faces with face-decomposition tet quality < 1e-15      : 143
    faces with concavity > 80  degrees                     : 12
    faces with skewness > 4   (internal) or 20  (boundary) : 0
    faces with interpolation weights (0..1)  < 0.02        : 0
    faces with volume ratio of neighbour cells < 0.01      : 0
    faces with face twist < 0.02                           : 79
    faces on cells with determinant < 0.001                : 0

Iteration 2
Moving mesh using displacement scaling : min:0.5625  max:1
Checking faces in error :
    non-orthogonality > 65  degrees                        : 3770
    faces with face pyramid volume < 1e-13                 : 66
    faces with face-decomposition tet quality < 1e-15      : 113
    faces with concavity > 80  degrees                     : 20
    faces with skewness > 4   (internal) or 20  (boundary) : 0
    faces with interpolation weights (0..1)  < 0.02        : 0
    faces with volume ratio of neighbour cells < 0.01      : 0
    faces with face twist < 0.02                           : 91
    faces on cells with determinant < 0.001                : 0

Iteration 3
Moving mesh using displacement scaling : min:0.421875  max:1
Checking faces in error :
    non-orthogonality > 65  degrees                        : 3613
    faces with face pyramid volume < 1e-13                 : 64
    faces with face-decomposition tet quality < 1e-15      : 104
    faces with concavity > 80  degrees                     : 20
    faces with skewness > 4   (internal) or 20  (boundary) : 0
    faces with interpolation weights (0..1)  < 0.02        : 0
    faces with volume ratio of neighbour cells < 0.01      : 0
    faces with face twist < 0.02                           : 106
    faces on cells with determinant < 0.001                : 0

Iteration 4
Moving mesh using displacement scaling : min:0.316406  max:1
Checking faces in error :
    non-orthogonality > 65  degrees                        : 3417
    faces with face pyramid volume < 1e-13                 : 70
    faces with face-decomposition tet quality < 1e-15      : 73
    faces with concavity > 80  degrees                     : 20
    faces with skewness > 4   (internal) or 20  (boundary) : 0
    faces with interpolation weights (0..1)  < 0.02        : 0
    faces with volume ratio of neighbour cells < 0.01      : 0
    faces with face twist < 0.02                           : 115
    faces on cells with determinant < 0.001                : 0

Iteration 5
Displacement scaling for error reduction set to 0.
Moving mesh using displacement scaling : min:0.237305  max:1
Checking faces in error :
    non-orthogonality > 65  degrees                        : 3308
    faces with face pyramid volume < 1e-13                 : 70
    faces with face-decomposition tet quality < 1e-15      : 56
    faces with concavity > 80  degrees                     : 20
    faces with skewness > 4   (internal) or 20  (boundary) : 0
    faces with interpolation weights (0..1)  < 0.02        : 0
    faces with volume ratio of neighbour cells < 0.01      : 0
    faces with face twist < 0.02                           : 118
    faces on cells with determinant < 0.001                : 0

Iteration 6
Moving mesh using displacement scaling : min:0  max:1
Checking faces in error :
    non-orthogonality > 65  degrees                        : 73
    faces with face pyramid volume < 1e-13                 : 0
    faces with face-decomposition tet quality < 1e-15      : 0
    faces with concavity > 80  degrees                     : 0
    faces with skewness > 4   (internal) or 20  (boundary) : 0
    faces with interpolation weights (0..1)  < 0.02        : 0
    faces with volume ratio of neighbour cells < 0.01      : 0
    faces with face twist < 0.02                           : 2
    faces on cells with determinant < 0.001                : 0

Iteration 7
Moving mesh using displacement scaling : min:0  max:1
Checking faces in error :
    non-orthogonality > 65  degrees                        : 0
    faces with face pyramid volume < 1e-13                 : 0
    faces with face-decomposition tet quality < 1e-15      : 0
    faces with concavity > 80  degrees                     : 2
    faces with skewness > 4   (internal) or 20  (boundary) : 0
    faces with interpolation weights (0..1)  < 0.02        : 0
    faces with volume ratio of neighbour cells < 0.01      : 0
    faces with face twist < 0.02                           : 0
    faces on cells with determinant < 0.001                : 0

Iteration 8
Moving mesh using displacement scaling : min:0  max:1
Checking faces in error :
    non-orthogonality > 65  degrees                        : 0
    faces with face pyramid volume < 1e-13                 : 0
    faces with face-decomposition tet quality < 1e-15      : 0
    faces with concavity > 80  degrees                     : 0
    faces with skewness > 4   (internal) or 20  (boundary) : 0
    faces with interpolation weights (0..1)  < 0.02        : 0
    faces with volume ratio of neighbour cells < 0.01      : 0
    faces with face twist < 0.02                           : 0
    faces on cells with determinant < 0.001                : 0
Successfully moved mesh
Moved mesh in = 187.736 s


Repatching faces according to nearest surface ...
Repatched 24988 faces in = 1.44983 s


Edge intersection testing:
    Number of edges             : 17135688
    Number of edges to retest   : 3282224
    Number of intersected edges : 539761
Merging 46485 sets of faces.

Edge intersection testing:
    Number of edges             : 17084567
    Number of edges to retest   : 187962
    Number of intersected edges : 488489

Undo iteration 0
----------------
Checking faces in error :
    non-orthogonality > 65  degrees                        : 165
    faces with face pyramid volume < 1e-13                 : 0
    faces with face-decomposition tet quality < 1e-15      : 2
    faces with concavity > 80  degrees                     : 0
    faces with skewness > 4   (internal) or 20  (boundary) : 0
    faces with interpolation weights (0..1)  < 0.02        : 0
    faces with volume ratio of neighbour cells < 0.01      : 0
    faces with face twist < 0.02                           : 0
    faces on cells with determinant < 0.001                : 0
Masters that need to be restored:167
Edge intersection testing:
    Number of edges             : 17084797
    Number of edges to retest   : 1115
    Number of intersected edges : 488691


Undo iteration 1
----------------
Checking faces in error :
    non-orthogonality > 65  degrees                        : 0
    faces with face pyramid volume < 1e-13                 : 0
    faces with face-decomposition tet quality < 1e-15      : 0
    faces with concavity > 80  degrees                     : 0
    faces with skewness > 4   (internal) or 20  (boundary) : 0
    faces with interpolation weights (0..1)  < 0.02        : 0
    faces with volume ratio of neighbour cells < 0.01      : 0
    faces with face twist < 0.02                           : 0
    faces on cells with determinant < 0.001                : 0

Merging all points on surface that
- are used by only two boundary faces and
- make an angle with a cosine of more than 0.866025.

Removing 42338 straight edge points ...

Edge intersection testing:
    Number of edges             : 17084797
    Number of edges to retest   : 182802
    Number of intersected edges : 487818

Undo iteration 0
----------------
Checking faces in error :
    non-orthogonality > 65  degrees                        : 131
    faces with face pyramid volume < 1e-13                 : 0
    faces with face-decomposition tet quality < 1e-15      : 0
    faces with concavity > 80  degrees                     : 0
    faces with skewness > 4   (internal) or 20  (boundary) : 0
    faces with interpolation weights (0..1)  < 0.02        : 0
    faces with volume ratio of neighbour cells < 0.01      : 0
    faces with face twist < 0.02                           : 0
    faces on cells with determinant < 0.001                : 0
Detected 0 error faces on boundaries that have been merged. These will be restored to their original faces.

Detected 131 error faces in mesh. Restoring neighbours of faces in error.

Edge intersection testing:
    Number of edges             : 17084797
    Number of edges to retest   : 6081
    Number of intersected edges : 487902

Removing zero-sized patches:
    enclosure type patch at position 0

Snapped mesh : cells:5538083  faces:17084797  points:6032476
Cells per refinement level:
    0	0
    1	0
    2	0
    3	3549268
    4	1447648
    5	442887
    6	98280
Writing mesh to time constant
Wrote mesh in = 91.9481 s.
Mesh snapped in = 2679.97 s.
Checking final mesh ...
Checking faces in error :
    non-orthogonality > 65  degrees                        : 20
    faces with face pyramid volume < 1e-13                 : 0
    faces with face-decomposition tet quality < 1e-15      : 0
    faces with concavity > 80  degrees                     : 0
    faces with skewness > 4   (internal) or 20  (boundary) : 0
    faces with interpolation weights (0..1)  < 0.02        : 0
    faces with volume ratio of neighbour cells < 0.01      : 0
    faces with face twist < 0.02                           : 0
    faces on cells with determinant < 0.001                : 0
Finished meshing with 20 illegal faces (concave, zero area or negative cell pyramid volume)
Finished meshing in = 24836.2 s.
End

Finalising parallel run
TACC:  Shutdown complete. Exiting. 
