TACC:  Starting up job 2925938 
TACC:  Starting parallel tasks... 
/*---------------------------------------------------------------------------*\
  =========                 |
  \\      /  F ield         | OpenFOAM: The Open Source CFD Toolbox
   \\    /   O peration     | Website:  https://openfoam.org
    \\  /    A nd           | Version:  12
     \\/     M anipulation  |
\*---------------------------------------------------------------------------*/
Build  : 12-6aa359dae696
Exec   : /home1/apps/intel24/impi21/OpenFOAM/OpenFOAM-12/platforms/linux64IcxDPInt32Opt/bin/snappyHexMesh -parallel -overwrite
Date   : Feb 16 2026
Time   : 04:09:38
Host   : "c314-071.ls6.tacc.utexas.edu"
PID    : 1031916
I/O    : uncollated
Case   : /work/11170/roy/FRP-Beam-Cleaning
nProcs : 12
Slaves : 
11
(
"c314-071.ls6.tacc.utexas.edu.1031917"
"c314-071.ls6.tacc.utexas.edu.1031918"
"c314-071.ls6.tacc.utexas.edu.1031919"
"c314-071.ls6.tacc.utexas.edu.1031920"
"c314-071.ls6.tacc.utexas.edu.1031921"
"c314-071.ls6.tacc.utexas.edu.1031922"
"c314-071.ls6.tacc.utexas.edu.1031923"
"c314-071.ls6.tacc.utexas.edu.1031924"
"c314-071.ls6.tacc.utexas.edu.1031925"
"c314-071.ls6.tacc.utexas.edu.1031926"
"c314-071.ls6.tacc.utexas.edu.1031927"
)

Pstream initialised with:
    floatTransfer      : false
    nProcsSimpleSum    : 0
    commsType          : nonBlocking
    polling iterations : 0
sigFpe : Enabling floating point exception trapping (FOAM_SIGFPE).
fileModificationChecking : Monitoring run-time modified files using timeStampMaster (fileModificationSkew 10)
allowSystemOperations : Allowing user-supplied system call operations

// * * * * * * * * * * * * * * * * * * * * * * * * * * * * * * * * * * * * * //
Create time

Create mesh for time = 0

Read mesh in = 0.975758 s
Reading "snappyHexMeshDict"


Overall mesh bounding box  : (-0.25 -3.74 -0.25) (0.25 0.5 0.25)
Relative tolerance         : 1e-06
Absolute matching distance : 4.29856e-06

beamWalls : using scale 0.001
beamFrontOpening : using scale 0.001
beamBackOpening : using scale 0.001
beamHoles : using scale 0.001
nozzle : using scale 0.001
nozzleInlet : using scale 0.001
enclosure : using scale 0.001
Reading refinement surfaces...
Read refinement surfaces in = 0.061243 s

Reading refinement regions...
--> FOAM Warning : 
    From function void Foam::refinementRegions::setAndCheckLevels(const label, const dictionary &)
    in file refinementRegions/refinementRegions.C at line 71
    Shell beamWalls is not closed so testing for 'inside' may fail.
Refinement level 3 for all cells inside beamWalls
Refinement level according to distance to beamHoles
    level 5 for all cells within 0.002 metre.
    level 4 for all cells within 0.005 metre.
Refinement level according to distance to nozzle
    level 4 for all cells within 0.005 metre.
refinementRegions : Flipped orientation of surface beamWalls so point (0.0762 3.2401 0.0762) is outside.
Read refinement regions in = 0.000855 s

Reading features...
Read extendedFeatureEdgeMesh beam_walls.extendedFeatureEdgeMesh
    points      : 20
    edges       : 32
    boundingBox : (-25.4 -3240.1 -25.4) (25.4 0 25.4)
    point classification :
        convex feature points          :       12
        concave feature points         :        4
        mixed feature points           :        4
        other (non-feature) points     :        0
    edge classification :
        external (convex angle) edges  :       20
        internal (concave angle) edges :        8
        flat region edges              :        0
        open edges                     :        0
        multiply connected edges       :        4

Refinement level according to distance to "beam_walls.extendedFeatureEdgeMesh" (20 points, 32 edges).
    level 3 for all cells within 0 metre.
Read extendedFeatureEdgeMesh beam_holes.extendedFeatureEdgeMesh
    points      : 9720
    edges       : 10068
    boundingBox : (-1.74574 -3211.75 -25.4) (1.75 -28.2511 25.4)
    point classification :
        convex feature points          :        0
        concave feature points         :        0
        mixed feature points           :      180
        other (non-feature) points     :     9540
    edge classification :
        external (convex angle) edges  :     9540
        internal (concave angle) edges :        0
        flat region edges              :        0
        open edges                     :        0
        multiply connected edges       :      528

Refinement level according to distance to "beam_holes.extendedFeatureEdgeMesh" (9720 points, 10068 edges).
    level 5 for all cells within 0 metre.
Read extendedFeatureEdgeMesh nozzle.extendedFeatureEdgeMesh
    points      : 504
    edges       : 504
    boundingBox : (-10 -3000 -9.99689) (10 -2490 9.99689)
    point classification :
        convex feature points          :        0
        concave feature points         :        0
        mixed feature points           :        0
        other (non-feature) points     :      504
    edge classification :
        external (convex angle) edges  :      504
        internal (concave angle) edges :        0
        flat region edges              :        0
        open edges                     :        0
        multiply connected edges       :        0

Refinement level according to distance to "nozzle.extendedFeatureEdgeMesh" (504 points, 504 edges).
    level 4 for all cells within 0 metre.
Read extendedFeatureEdgeMesh nozzle_inlet.extendedFeatureEdgeMesh
    points      : 122
    edges       : 122
    boundingBox : (-4.24546 -2600.17 -4.24859) (4.24935 -2599.93 4.24859)
    point classification :
        convex feature points          :        0
        concave feature points         :        0
        mixed feature points           :        0
        other (non-feature) points     :      122
    edge classification :
        external (convex angle) edges  :      122
        internal (concave angle) edges :        0
        flat region edges              :        0
        open edges                     :        0
        multiply connected edges       :        0

Refinement level according to distance to "nozzle_inlet.extendedFeatureEdgeMesh" (122 points, 122 edges).
    level 5 for all cells within 0 metre.
Read extendedFeatureEdgeMesh beam_front_opening.extendedFeatureEdgeMesh
    points      : 8
    edges       : 12
    boundingBox : (-19.05 -0.1 -19.05) (19.05 4.22995e-15 19.05)
    point classification :
        convex feature points          :        8
        concave feature points         :        0
        mixed feature points           :        0
        other (non-feature) points     :        0
    edge classification :
        external (convex angle) edges  :       12
        internal (concave angle) edges :        0
        flat region edges              :        0
        open edges                     :        0
        multiply connected edges       :        0

Refinement level according to distance to "beam_front_opening.extendedFeatureEdgeMesh" (8 points, 12 edges).
    level 3 for all cells within 0 metre.
Read extendedFeatureEdgeMesh beam_back_opening.extendedFeatureEdgeMesh
    points      : 8
    edges       : 12
    boundingBox : (-19.05 -3240.1 -19.05) (19.05 -3240 19.05)
    point classification :
        convex feature points          :        8
        concave feature points         :        0
        mixed feature points           :        0
        other (non-feature) points     :        0
    edge classification :
        external (convex angle) edges  :       12
        internal (concave angle) edges :        0
        flat region edges              :        0
        open edges                     :        0
        multiply connected edges       :        0

Refinement level according to distance to "beam_back_opening.extendedFeatureEdgeMesh" (8 points, 12 edges).
    level 3 for all cells within 0 metre.
Read features in = 0.157481 s


Determining initial surface intersections
-----------------------------------------

Edge intersection testing:
    Number of edges             : 5144000
    Number of edges to retest   : 5144000
    Number of intersected edges : 97748
Calculated surface intersections in = 2.95425 s

Initial mesh : cells:1700000  faces:5144000  points:1744371
Cells per refinement level:
    0	1700000

Adding patches for surface regions
----------------------------------

Patch Type                Region                        
----- ----                ------                        
beamWalls:

1     wall                beamWalls                     

beamFrontOpening:

2     patch               beamFrontOpening              

beamBackOpening:

3     patch               beamBackOpening               

beamHoles:

4     patch               beamHoles                     

nozzle:

5     wall                nozzle                        

nozzleInlet:

6     patch               nozzleInlet                   

enclosure:

7     patch               enclosure                     

Added patches in = 0.691031 s

Selecting distributor scotch
Cell selection insidePoints: 1((0 -1.62 0))

Refinement phase
----------------

Found point (0 -1.62 0) in cell 69232 on processor 6

Feature refinement iteration 0
------------------------------

--> FOAM Warning : 
    From function Foam::scalar Foam::particle::trackToFace(const polyMesh &, const vector &, const scalar)
    in file particle/particle.C at line 606
    Particle #10 got stuck at (0.116605 -1.61256 0.116605)
--> FOAM Warning : 
    From function Foam::scalar Foam::particle::trackToFace(const polyMesh &, const vector &, const scalar)
    in file particle/particle.C at line 606
    Particle #10 got stuck at (0.117315 -1.61252 0.117315)
--> FOAM Warning : 
    From function Foam::scalar Foam::particle::trackToFace(const polyMesh &, const vector &, const scalar)
    in file particle/particle.C at line 606
    Particle #10 got stuck at (0.116605 -1.61256 0.116605)
Marked for refinement due to explicit features             : 378 cells.
Determined cells to refine in = 18.3975 s
Selected for feature refinement : 378 cells (out of 1700000)
Edge intersection testing:
    Number of edges             : 5154212
    Number of edges to retest   : 17048
    Number of intersected edges : 97835
Refined mesh in = 2.75172 s
After refinement feature refinement iteration 0 : cells:1702646  faces:5154212  points:1749644
Cells per refinement level:
    0	1699622
    1	3024
Balanced mesh in = 10.7581 s
After balancing feature refinement iteration 0 : cells:1702646  faces:5154212  points:1749644
Cells per refinement level:
    0	1699622
    1	3024

Feature refinement iteration 1
------------------------------

Marked for refinement due to explicit features             : 537 cells.
Determined cells to refine in = 17.6757 s
Selected for feature refinement : 538 cells (out of 1702646)
Edge intersection testing:
    Number of edges             : 5168132
    Number of edges to retest   : 23979
    Number of intersected edges : 97936
Refined mesh in = 2.44406 s
After refinement feature refinement iteration 1 : cells:1706412  faces:5168132  points:1756388
Cells per refinement level:
    0	1699089
    1	7283
    2	40
Balanced mesh in = 11.4594 s
After balancing feature refinement iteration 1 : cells:1706412  faces:5168132  points:1756388
Cells per refinement level:
    0	1699089
    1	7283
    2	40

Feature refinement iteration 2
------------------------------

Marked for refinement due to explicit features             : 90 cells.
Determined cells to refine in = 19.9471 s
Selected for feature refinement : 94 cells (out of 1706412)
Edge intersection testing:
    Number of edges             : 5170658
    Number of edges to retest   : 4194
    Number of intersected edges : 97972
Refined mesh in = 2.39133 s
After refinement feature refinement iteration 2 : cells:1707070  faces:5170658  points:1757689
Cells per refinement level:
    0	1699000
    1	7990
    2	80
Balanced mesh in = 11.2809 s
After balancing feature refinement iteration 2 : cells:1707070  faces:5170658  points:1757689
Cells per refinement level:
    0	1699000
    1	7990
    2	80

Feature refinement iteration 3
------------------------------

Marked for refinement due to explicit features             : 13 cells.
Determined cells to refine in = 17.9598 s
Selected for feature refinement : 16 cells (out of 1707070)
Edge intersection testing:
    Number of edges             : 5171078
    Number of edges to retest   : 742
    Number of intersected edges : 97984
Refined mesh in = 2.32997 s
After refinement feature refinement iteration 3 : cells:1707182  faces:5171078  points:1757898
Cells per refinement level:
    0	1698988
    1	8082
    2	112
Balanced mesh in = 11.4379 s
After balancing feature refinement iteration 3 : cells:1707182  faces:5171078  points:1757898
Cells per refinement level:
    0	1698988
    1	8082
    2	112

Feature refinement iteration 4
------------------------------

Marked for refinement due to explicit features             : 425 cells.
Determined cells to refine in = 17.387 s
Selected for feature refinement : 637 cells (out of 1707182)
Edge intersection testing:
    Number of edges             : 5187338
    Number of edges to retest   : 27511
    Number of intersected edges : 98245
Refined mesh in = 2.50469 s
After refinement feature refinement iteration 4 : cells:1711641  faces:5187338  points:1765616
Cells per refinement level:
    0	1698655
    1	10447
    2	2499
    3	40
Balanced mesh in = 11.288 s
After balancing feature refinement iteration 4 : cells:1711641  faces:5187338  points:1765616
Cells per refinement level:
    0	1698655
    1	10447
    2	2499
    3	40

Feature refinement iteration 5
------------------------------

Marked for refinement due to explicit features             : 0 cells.
Determined cells to refine in = 20.0073 s
Selected for feature refinement : 0 cells (out of 1711641)
Stopping refining since too few cells selected.


Surface refinement iteration 0
------------------------------

Marked for refinement due to surface intersection          : 100959 cells.
Marked for refinement due to curvature/regions             : 8 cells.
Determined cells to refine in = 0.101127 s
Selected for refinement : 100989 cells (out of 1711641)
Edge intersection testing:
    Number of edges             : 7583324
    Number of edges to retest   : 3073914
    Number of intersected edges : 392711
Refined mesh in = 4.53009 s
After refinement surface refinement iteration 0 : cells:2418564  faces:7583324  points:2747673
Cells per refinement level:
    0	1598226
    1	813335
    2	6835
    3	168
Balanced mesh in = 17.8526 s
After balancing surface refinement iteration 0 : cells:2418564  faces:7583324  points:2747673
Cells per refinement level:
    0	1598226
    1	813335
    2	6835
    3	168

Surface refinement iteration 1
------------------------------

Marked for refinement due to surface intersection          : 76058 cells.
Marked for refinement due to curvature/regions             : 3000 cells.
Determined cells to refine in = 0.727282 s
Selected for refinement : 79763 cells (out of 2418564)
Edge intersection testing:
    Number of edges             : 9346004
    Number of edges to retest   : 2176064
    Number of intersected edges : 529797
Refined mesh in = 21.0917 s
After refinement surface refinement iteration 1 : cells:2976905  faces:9346004  points:3395905
Cells per refinement level:
    0	1597603
    1	740823
    2	625223
    3	12744
    4	512
Balanced mesh in = 30.3344 s
After balancing surface refinement iteration 1 : cells:2976905  faces:9346004  points:3395905
Cells per refinement level:
    0	1597603
    1	740823
    2	625223
    3	12744
    4	512

Surface refinement iteration 2
------------------------------

Marked for refinement due to surface intersection          : 301716 cells.
Marked for refinement due to curvature/regions             : 1288 cells.
Determined cells to refine in = 1.48239 s
Selected for refinement : 320842 cells (out of 2976905)
Edge intersection testing:
    Number of edges             : 16542344
    Number of edges to retest   : 9049223
    Number of intersected edges : 1021388
Refined mesh in = 34.223 s
After refinement surface refinement iteration 2 : cells:5222799  faces:16542344  points:6100446
Cells per refinement level:
    0	1595137
    1	745591
    2	446321
    3	2396566
    4	39184
Balanced mesh in = 52.6045 s
After balancing surface refinement iteration 2 : cells:5222799  faces:16542344  points:6100446
Cells per refinement level:
    0	1595137
    1	745591
    2	446321
    3	2396566
    4	39184

Surface refinement iteration 3
------------------------------

Marked for refinement due to surface intersection          : 44806 cells.
Marked for refinement due to curvature/regions             : 21179 cells.
Determined cells to refine in = 2.39112 s
Selected for refinement : 69608 cells (out of 5222799)
Edge intersection testing:
    Number of edges             : 18134441
    Number of edges to retest   : 2282045
    Number of intersected edges : 1201750
Refined mesh in = 17.6154 s
After refinement surface refinement iteration 3 : cells:5710055  faces:18134441  points:6725286
Cells per refinement level:
    0	1594833
    1	747577
    2	444199
    3	2381065
    4	525205
    5	17176
Balanced mesh in = 45.3954 s
After balancing surface refinement iteration 3 : cells:5710055  faces:18134441  points:6725286
Cells per refinement level:
    0	1594833
    1	747577
    2	444199
    3	2381065
    4	525205
    5	17176

Surface refinement iteration 4
------------------------------

Marked for refinement due to surface intersection          : 94244 cells.
Marked for refinement due to curvature/regions             : 20867 cells.
Determined cells to refine in = 4.11881 s
Selected for refinement : 122827 cells (out of 5710055)
Edge intersection testing:
    Number of edges             : 20932868
    Number of edges to retest   : 3681905
    Number of intersected edges : 1485464
Refined mesh in = 35.7782 s
After refinement surface refinement iteration 4 : cells:6569844  faces:20932868  points:7815792
Cells per refinement level:
    0	1594803
    1	747759
    2	443697
    3	2375135
    4	526354
    5	882096
Balanced mesh in = 53.9681 s
After balancing surface refinement iteration 4 : cells:6569844  faces:20932868  points:7815792
Cells per refinement level:
    0	1594803
    1	747759
    2	443697
    3	2375135
    4	526354
    5	882096

Surface refinement iteration 5
------------------------------

Marked for refinement due to surface intersection          : 10576 cells.
Marked for refinement due to curvature/regions             : 42665 cells.
Determined cells to refine in = 7.49352 s
Selected for refinement : 59762 cells (out of 6569844)
Edge intersection testing:
    Number of edges             : 22368872
    Number of edges to retest   : 2276530
    Number of intersected edges : 1705047
Refined mesh in = 23.4672 s
After refinement surface refinement iteration 5 : cells:6988178  faces:22368872  points:8432884
Cells per refinement level:
    0	1594763
    1	748013
    2	443333
    3	2379535
    4	534184
    5	952590
    6	335760
Balanced mesh in = 58.9663 s
After balancing surface refinement iteration 5 : cells:6988178  faces:22368872  points:8432884
Cells per refinement level:
    0	1594763
    1	748013
    2	443333
    3	2379535
    4	534184
    5	952590
    6	335760

Surface refinement iteration 6
------------------------------

Marked for refinement due to surface intersection          : 32 cells.
Marked for refinement due to curvature/regions             : 13294 cells.
Determined cells to refine in = 9.20445 s
Selected for refinement : 15131 cells (out of 6988178)
Edge intersection testing:
    Number of edges             : 22728377
    Number of edges to retest   : 739505
    Number of intersected edges : 1760541
Refined mesh in = 14.2805 s
After refinement surface refinement iteration 6 : cells:7094095  faces:22728377  points:8582885
Cells per refinement level:
    0	1594763
    1	748009
    2	443309
    3	2379564
    4	535966
    5	952068
    6	440416
Balanced mesh in = 55.824 s
After balancing surface refinement iteration 6 : cells:7094095  faces:22728377  points:8582885
Cells per refinement level:
    0	1594763
    1	748009
    2	443309
    3	2379564
    4	535966
    5	952068
    6	440416

Surface refinement iteration 7
------------------------------

Marked for refinement due to surface intersection          : 0 cells.
Marked for refinement due to curvature/regions             : 705 cells.
Determined cells to refine in = 11.1437 s
Selected for refinement : 1023 cells (out of 7094095)
Edge intersection testing:
    Number of edges             : 22751150
    Number of edges to retest   : 55661
    Number of intersected edges : 1760957
Refined mesh in = 10.5727 s
After refinement surface refinement iteration 7 : cells:7101256  faces:22751150  points:8591292
Cells per refinement level:
    0	1594763
    1	748009
    2	443289
    3	2379646
    4	536303
    5	953726
    6	445520
Balanced mesh in = 59.247 s
After balancing surface refinement iteration 7 : cells:7101256  faces:22751150  points:8591292
Cells per refinement level:
    0	1594763
    1	748009
    2	443289
    3	2379646
    4	536303
    5	953726
    6	445520

Surface refinement iteration 8
------------------------------

Marked for refinement due to surface intersection          : 0 cells.
Marked for refinement due to curvature/regions             : 49 cells.
Determined cells to refine in = 9.20782 s
Selected for refinement : 61 cells (out of 7101256)
Edge intersection testing:
    Number of edges             : 22752611
    Number of edges to retest   : 4451
    Number of intersected edges : 1761105
Refined mesh in = 10.0933 s
After refinement surface refinement iteration 8 : cells:7101683  faces:22752611  points:8591891
Cells per refinement level:
    0	1594763
    1	748009
    2	443285
    3	2379655
    4	536453
    5	953998
    6	445520
Balanced mesh in = 54.3873 s
After balancing surface refinement iteration 8 : cells:7101683  faces:22752611  points:8591891
Cells per refinement level:
    0	1594763
    1	748009
    2	443285
    3	2379655
    4	536453
    5	953998
    6	445520

Surface refinement iteration 9
------------------------------

Marked for refinement due to surface intersection          : 0 cells.
Marked for refinement due to curvature/regions             : 11 cells.
Determined cells to refine in = 10.2596 s
Selected for refinement : 19 cells (out of 7101683)
Edge intersection testing:
    Number of edges             : 22753067
    Number of edges to retest   : 1605
    Number of intersected edges : 1761181
Refined mesh in = 9.91085 s
After refinement surface refinement iteration 9 : cells:7101816  faces:22753067  points:8592081
Cells per refinement level:
    0	1594763
    1	748009
    2	443277
    3	2379708
    4	536541
    5	953998
    6	445520
Balanced mesh in = 56.0605 s
After balancing surface refinement iteration 9 : cells:7101816  faces:22753067  points:8592081
Cells per refinement level:
    0	1594763
    1	748009
    2	443277
    3	2379708
    4	536541
    5	953998
    6	445520

Surface refinement iteration 10
------------------------------

Marked for refinement due to surface intersection          : 0 cells.
Marked for refinement due to curvature/regions             : 14 cells.
Determined cells to refine in = 10.3619 s
Selected for refinement : 14 cells (out of 7101816)
Edge intersection testing:
    Number of edges             : 22753427
    Number of edges to retest   : 1066
    Number of intersected edges : 1761269
Refined mesh in = 9.92192 s
After refinement surface refinement iteration 10 : cells:7101914  faces:22753427  points:8592245
Cells per refinement level:
    0	1594763
    1	748009
    2	443277
    3	2379694
    4	536653
    5	953998
    6	445520
Balanced mesh in = 58.6659 s
After balancing surface refinement iteration 10 : cells:7101914  faces:22753427  points:8592245
Cells per refinement level:
    0	1594763
    1	748009
    2	443277
    3	2379694
    4	536653
    5	953998
    6	445520

Surface refinement iteration 11
------------------------------

Marked for refinement due to surface intersection          : 0 cells.
Marked for refinement due to curvature/regions             : 12 cells.
Determined cells to refine in = 11.2408 s
Selected for refinement : 20 cells (out of 7101914)
Edge intersection testing:
    Number of edges             : 22753904
    Number of edges to retest   : 1659
    Number of intersected edges : 1761345
Refined mesh in = 9.9264 s
After refinement surface refinement iteration 11 : cells:7102054  faces:22753904  points:8592442
Cells per refinement level:
    0	1594763
    1	748009
    2	443269
    3	2379746
    4	536749
    5	953998
    6	445520
Balanced mesh in = 56.4922 s
After balancing surface refinement iteration 11 : cells:7102054  faces:22753904  points:8592442
Cells per refinement level:
    0	1594763
    1	748009
    2	443269
    3	2379746
    4	536749
    5	953998
    6	445520

Surface refinement iteration 12
------------------------------

Marked for refinement due to surface intersection          : 0 cells.
Marked for refinement due to curvature/regions             : 13 cells.
Determined cells to refine in = 10.8032 s
Selected for refinement : 13 cells (out of 7102054)
Edge intersection testing:
    Number of edges             : 22754237
    Number of edges to retest   : 1002
    Number of intersected edges : 1761425
Refined mesh in = 10.1952 s
After refinement surface refinement iteration 12 : cells:7102145  faces:22754237  points:8592593
Cells per refinement level:
    0	1594763
    1	748009
    2	443269
    3	2379733
    4	536853
    5	953998
    6	445520
Balanced mesh in = 57.3754 s
After balancing surface refinement iteration 12 : cells:7102145  faces:22754237  points:8592593
Cells per refinement level:
    0	1594763
    1	748009
    2	443269
    3	2379733
    4	536853
    5	953998
    6	445520

Surface refinement iteration 13
------------------------------

Marked for refinement due to surface intersection          : 0 cells.
Marked for refinement due to curvature/regions             : 11 cells.
Determined cells to refine in = 8.58533 s
Selected for refinement : 19 cells (out of 7102145)
Edge intersection testing:
    Number of edges             : 22754693
    Number of edges to retest   : 1599
    Number of intersected edges : 1761501
Refined mesh in = 10.1335 s
After refinement surface refinement iteration 13 : cells:7102278  faces:22754693  points:8592783
Cells per refinement level:
    0	1594763
    1	748009
    2	443261
    3	2379786
    4	536941
    5	953998
    6	445520
Balanced mesh in = 57.3457 s
After balancing surface refinement iteration 13 : cells:7102278  faces:22754693  points:8592783
Cells per refinement level:
    0	1594763
    1	748009
    2	443261
    3	2379786
    4	536941
    5	953998
    6	445520

Surface refinement iteration 14
------------------------------

Marked for refinement due to surface intersection          : 0 cells.
Marked for refinement due to curvature/regions             : 15 cells.
Determined cells to refine in = 10.8665 s
Selected for refinement : 15 cells (out of 7102278)
Edge intersection testing:
    Number of edges             : 22755077
    Number of edges to retest   : 1129
    Number of intersected edges : 1761593
Refined mesh in = 10.4135 s
After refinement surface refinement iteration 14 : cells:7102383  faces:22755077  points:8592957
Cells per refinement level:
    0	1594763
    1	748009
    2	443261
    3	2379771
    4	537061
    5	953998
    6	445520
Balanced mesh in = 56.3623 s
After balancing surface refinement iteration 14 : cells:7102383  faces:22755077  points:8592957
Cells per refinement level:
    0	1594763
    1	748009
    2	443261
    3	2379771
    4	537061
    5	953998
    6	445520

Surface refinement iteration 15
------------------------------

Marked for refinement due to surface intersection          : 0 cells.
Marked for refinement due to curvature/regions             : 9 cells.
Determined cells to refine in = 9.44624 s
Selected for refinement : 17 cells (out of 7102383)
Edge intersection testing:
    Number of edges             : 22755485
    Number of edges to retest   : 1492
    Number of intersected edges : 1761661
Refined mesh in = 10.1944 s
After refinement surface refinement iteration 15 : cells:7102502  faces:22755485  points:8593127
Cells per refinement level:
    0	1594763
    1	748009
    2	443253
    3	2379826
    4	537133
    5	953998
    6	445520
Balanced mesh in = 54.3401 s
After balancing surface refinement iteration 15 : cells:7102502  faces:22755485  points:8593127
Cells per refinement level:
    0	1594763
    1	748009
    2	443253
    3	2379826
    4	537133
    5	953998
    6	445520

Surface refinement iteration 16
------------------------------

Marked for refinement due to surface intersection          : 0 cells.
Marked for refinement due to curvature/regions             : 16 cells.
Determined cells to refine in = 11.5908 s
Selected for refinement : 16 cells (out of 7102502)
Edge intersection testing:
    Number of edges             : 22755893
    Number of edges to retest   : 1189
    Number of intersected edges : 1761757
Refined mesh in = 9.95994 s
After refinement surface refinement iteration 16 : cells:7102614  faces:22755893  points:8593311
Cells per refinement level:
    0	1594763
    1	748009
    2	443253
    3	2379810
    4	537261
    5	953998
    6	445520
Balanced mesh in = 56.7604 s
After balancing surface refinement iteration 16 : cells:7102614  faces:22755893  points:8593311
Cells per refinement level:
    0	1594763
    1	748009
    2	443253
    3	2379810
    4	537261
    5	953998
    6	445520

Surface refinement iteration 17
------------------------------

Marked for refinement due to surface intersection          : 0 cells.
Marked for refinement due to curvature/regions             : 10 cells.
Determined cells to refine in = 8.89793 s
Selected for refinement : 18 cells (out of 7102614)
Edge intersection testing:
    Number of edges             : 22756322
    Number of edges to retest   : 1552
    Number of intersected edges : 1761825
Refined mesh in = 10.2956 s
After refinement surface refinement iteration 17 : cells:7102740  faces:22756322  points:8593488
Cells per refinement level:
    0	1594763
    1	748009
    2	443245
    3	2379864
    4	537341
    5	953998
    6	445520
Balanced mesh in = 56.9887 s
After balancing surface refinement iteration 17 : cells:7102740  faces:22756322  points:8593488
Cells per refinement level:
    0	1594763
    1	748009
    2	443245
    3	2379864
    4	537341
    5	953998
    6	445520

Surface refinement iteration 18
------------------------------

Marked for refinement due to surface intersection          : 0 cells.
Marked for refinement due to curvature/regions             : 14 cells.
Determined cells to refine in = 8.4498 s
Selected for refinement : 14 cells (out of 7102740)
Edge intersection testing:
    Number of edges             : 22756679
    Number of edges to retest   : 1062
    Number of intersected edges : 1761909
Refined mesh in = 10.1997 s
After refinement surface refinement iteration 18 : cells:7102838  faces:22756679  points:8593649
Cells per refinement level:
    0	1594763
    1	748009
    2	443245
    3	2379850
    4	537453
    5	953998
    6	445520
Balanced mesh in = 56.694 s
After balancing surface refinement iteration 18 : cells:7102838  faces:22756679  points:8593649
Cells per refinement level:
    0	1594763
    1	748009
    2	443245
    3	2379850
    4	537453
    5	953998
    6	445520

Surface refinement iteration 19
------------------------------

Marked for refinement due to surface intersection          : 0 cells.
Marked for refinement due to curvature/regions             : 9 cells.
Determined cells to refine in = 10.0301 s
Selected for refinement : 17 cells (out of 7102838)
Edge intersection testing:
    Number of edges             : 22757087
    Number of edges to retest   : 1489
    Number of intersected edges : 1761977
Refined mesh in = 10.2555 s
After refinement surface refinement iteration 19 : cells:7102957  faces:22757087  points:8593819
Cells per refinement level:
    0	1594763
    1	748009
    2	443237
    3	2379905
    4	537525
    5	953998
    6	445520
Balanced mesh in = 55.9075 s
After balancing surface refinement iteration 19 : cells:7102957  faces:22757087  points:8593819
Cells per refinement level:
    0	1594763
    1	748009
    2	443237
    3	2379905
    4	537525
    5	953998
    6	445520

Surface refinement iteration 20
------------------------------

Marked for refinement due to surface intersection          : 0 cells.
Marked for refinement due to curvature/regions             : 15 cells.
Determined cells to refine in = 12.7545 s
Selected for refinement : 15 cells (out of 7102957)
Edge intersection testing:
    Number of edges             : 22757468
    Number of edges to retest   : 1122
    Number of intersected edges : 1762065
Refined mesh in = 10.0176 s
After refinement surface refinement iteration 20 : cells:7103062  faces:22757468  points:8593990
Cells per refinement level:
    0	1594763
    1	748009
    2	443237
    3	2379890
    4	537645
    5	953998
    6	445520
Balanced mesh in = 55.3436 s
After balancing surface refinement iteration 20 : cells:7103062  faces:22757468  points:8593990
Cells per refinement level:
    0	1594763
    1	748009
    2	443237
    3	2379890
    4	537645
    5	953998
    6	445520

Surface refinement iteration 21
------------------------------

Marked for refinement due to surface intersection          : 0 cells.
Marked for refinement due to curvature/regions             : 9 cells.
Determined cells to refine in = 11.0186 s
Selected for refinement : 17 cells (out of 7103062)
Edge intersection testing:
    Number of edges             : 22757876
    Number of edges to retest   : 1492
    Number of intersected edges : 1762133
Refined mesh in = 9.96851 s
After refinement surface refinement iteration 21 : cells:7103181  faces:22757876  points:8594160
Cells per refinement level:
    0	1594763
    1	748009
    2	443229
    3	2379945
    4	537717
    5	953998
    6	445520
Balanced mesh in = 54.82 s
After balancing surface refinement iteration 21 : cells:7103181  faces:22757876  points:8594160
Cells per refinement level:
    0	1594763
    1	748009
    2	443229
    3	2379945
    4	537717
    5	953998
    6	445520

Surface refinement iteration 22
------------------------------

Marked for refinement due to surface intersection          : 0 cells.
Marked for refinement due to curvature/regions             : 15 cells.
Determined cells to refine in = 10.385 s
Selected for refinement : 15 cells (out of 7103181)
Edge intersection testing:
    Number of edges             : 22758260
    Number of edges to retest   : 1117
    Number of intersected edges : 1762225
Refined mesh in = 10.4142 s
After refinement surface refinement iteration 22 : cells:7103286  faces:22758260  points:8594334
Cells per refinement level:
    0	1594763
    1	748009
    2	443229
    3	2379930
    4	537837
    5	953998
    6	445520
Balanced mesh in = 54.1163 s
After balancing surface refinement iteration 22 : cells:7103286  faces:22758260  points:8594334
Cells per refinement level:
    0	1594763
    1	748009
    2	443229
    3	2379930
    4	537837
    5	953998
    6	445520

Surface refinement iteration 23
------------------------------

Marked for refinement due to surface intersection          : 0 cells.
Marked for refinement due to curvature/regions             : 10 cells.
Determined cells to refine in = 9.93699 s
Selected for refinement : 18 cells (out of 7103286)
Edge intersection testing:
    Number of edges             : 22758686
    Number of edges to retest   : 1551
    Number of intersected edges : 1762289
Refined mesh in = 9.91992 s
After refinement surface refinement iteration 23 : cells:7103412  faces:22758686  points:8594508
Cells per refinement level:
    0	1594763
    1	748009
    2	443221
    3	2379984
    4	537917
    5	953998
    6	445520
Balanced mesh in = 55.2208 s
After balancing surface refinement iteration 23 : cells:7103412  faces:22758686  points:8594508
Cells per refinement level:
    0	1594763
    1	748009
    2	443221
    3	2379984
    4	537917
    5	953998
    6	445520

Surface refinement iteration 24
------------------------------

Marked for refinement due to surface intersection          : 0 cells.
Marked for refinement due to curvature/regions             : 13 cells.
Determined cells to refine in = 9.04605 s
Selected for refinement : 13 cells (out of 7103412)
Edge intersection testing:
    Number of edges             : 22759019
    Number of edges to retest   : 990
    Number of intersected edges : 1762369
Refined mesh in = 10.2422 s
After refinement surface refinement iteration 24 : cells:7103503  faces:22759019  points:8594659
Cells per refinement level:
    0	1594763
    1	748009
    2	443221
    3	2379971
    4	538021
    5	953998
    6	445520
Balanced mesh in = 59.9347 s
After balancing surface refinement iteration 24 : cells:7103503  faces:22759019  points:8594659
Cells per refinement level:
    0	1594763
    1	748009
    2	443221
    3	2379971
    4	538021
    5	953998
    6	445520

Surface refinement iteration 25
------------------------------

Marked for refinement due to surface intersection          : 0 cells.
Marked for refinement due to curvature/regions             : 10 cells.
Determined cells to refine in = 8.94458 s
Selected for refinement : 18 cells (out of 7103503)
Edge intersection testing:
    Number of edges             : 22759451
    Number of edges to retest   : 1544
    Number of intersected edges : 1762441
Refined mesh in = 9.95116 s
After refinement surface refinement iteration 25 : cells:7103629  faces:22759451  points:8594839
Cells per refinement level:
    0	1594763
    1	748009
    2	443213
    3	2380025
    4	538101
    5	953998
    6	445520
Balanced mesh in = 59.9634 s
After balancing surface refinement iteration 25 : cells:7103629  faces:22759451  points:8594839
Cells per refinement level:
    0	1594763
    1	748009
    2	443213
    3	2380025
    4	538101
    5	953998
    6	445520

Surface refinement iteration 26
------------------------------

Marked for refinement due to surface intersection          : 0 cells.
Marked for refinement due to curvature/regions             : 13 cells.
Determined cells to refine in = 8.66996 s
Selected for refinement : 13 cells (out of 7103629)
Edge intersection testing:
    Number of edges             : 22759784
    Number of edges to retest   : 993
    Number of intersected edges : 1762521
Refined mesh in = 10.2402 s
After refinement surface refinement iteration 26 : cells:7103720  faces:22759784  points:8594990
Cells per refinement level:
    0	1594763
    1	748009
    2	443213
    3	2380012
    4	538205
    5	953998
    6	445520
Balanced mesh in = 56.4861 s
After balancing surface refinement iteration 26 : cells:7103720  faces:22759784  points:8594990
Cells per refinement level:
    0	1594763
    1	748009
    2	443213
    3	2380012
    4	538205
    5	953998
    6	445520

Surface refinement iteration 27
------------------------------

Marked for refinement due to surface intersection          : 0 cells.
Marked for refinement due to curvature/regions             : 11 cells.
Determined cells to refine in = 11.1464 s
Selected for refinement : 19 cells (out of 7103720)
Edge intersection testing:
    Number of edges             : 22760237
    Number of edges to retest   : 1598
    Number of intersected edges : 1762593
Refined mesh in = 9.97912 s
After refinement surface refinement iteration 27 : cells:7103853  faces:22760237  points:8595177
Cells per refinement level:
    0	1594763
    1	748009
    2	443205
    3	2380065
    4	538293
    5	953998
    6	445520
Balanced mesh in = 56.6338 s
After balancing surface refinement iteration 27 : cells:7103853  faces:22760237  points:8595177
Cells per refinement level:
    0	1594763
    1	748009
    2	443205
    3	2380065
    4	538293
    5	953998
    6	445520

Surface refinement iteration 28
------------------------------

Marked for refinement due to surface intersection          : 0 cells.
Marked for refinement due to curvature/regions             : 14 cells.
Determined cells to refine in = 10.8694 s
Selected for refinement : 14 cells (out of 7103853)
Edge intersection testing:
    Number of edges             : 22760597
    Number of edges to retest   : 1060
    Number of intersected edges : 1762681
Refined mesh in = 9.95082 s
After refinement surface refinement iteration 28 : cells:7103951  faces:22760597  points:8595341
Cells per refinement level:
    0	1594763
    1	748009
    2	443205
    3	2380051
    4	538405
    5	953998
    6	445520
Balanced mesh in = 58.5622 s
After balancing surface refinement iteration 28 : cells:7103951  faces:22760597  points:8595341
Cells per refinement level:
    0	1594763
    1	748009
    2	443205
    3	2380051
    4	538405
    5	953998
    6	445520

Surface refinement iteration 29
------------------------------

Marked for refinement due to surface intersection          : 0 cells.
Marked for refinement due to curvature/regions             : 10 cells.
Determined cells to refine in = 9.91258 s
Selected for refinement : 18 cells (out of 7103951)
Edge intersection testing:
    Number of edges             : 22761029
    Number of edges to retest   : 1550
    Number of intersected edges : 1762753
Refined mesh in = 10.0955 s
After refinement surface refinement iteration 29 : cells:7104077  faces:22761029  points:8595521
Cells per refinement level:
    0	1594763
    1	748009
    2	443197
    3	2380105
    4	538485
    5	953998
    6	445520
Balanced mesh in = 53.7448 s
After balancing surface refinement iteration 29 : cells:7104077  faces:22761029  points:8595521
Cells per refinement level:
    0	1594763
    1	748009
    2	443197
    3	2380105
    4	538485
    5	953998
    6	445520

Surface refinement iteration 30
------------------------------

Marked for refinement due to surface intersection          : 0 cells.
Marked for refinement due to curvature/regions             : 11 cells.
Determined cells to refine in = 14.3478 s
Selected for refinement : 11 cells (out of 7104077)
Edge intersection testing:
    Number of edges             : 22761317
    Number of edges to retest   : 868
    Number of intersected edges : 1762829
Refined mesh in = 10.0848 s
After refinement surface refinement iteration 30 : cells:7104154  faces:22761317  points:8595655
Cells per refinement level:
    0	1594763
    1	748009
    2	443197
    3	2380094
    4	538573
    5	953998
    6	445520
Balanced mesh in = 56.214 s
After balancing surface refinement iteration 30 : cells:7104154  faces:22761317  points:8595655
Cells per refinement level:
    0	1594763
    1	748009
    2	443197
    3	2380094
    4	538573
    5	953998
    6	445520

Surface refinement iteration 31
------------------------------

Marked for refinement due to surface intersection          : 0 cells.
Marked for refinement due to curvature/regions             : 10 cells.
Determined cells to refine in = 10.9198 s
Selected for refinement : 18 cells (out of 7104154)
Edge intersection testing:
    Number of edges             : 22761749
    Number of edges to retest   : 1538
    Number of intersected edges : 1762901
Refined mesh in = 10.3716 s
After refinement surface refinement iteration 31 : cells:7104280  faces:22761749  points:8595835
Cells per refinement level:
    0	1594763
    1	748009
    2	443189
    3	2380148
    4	538653
    5	953998
    6	445520
Balanced mesh in = 54.4322 s
After balancing surface refinement iteration 31 : cells:7104280  faces:22761749  points:8595835
Cells per refinement level:
    0	1594763
    1	748009
    2	443189
    3	2380148
    4	538653
    5	953998
    6	445520

Surface refinement iteration 32
------------------------------

Marked for refinement due to surface intersection          : 0 cells.
Marked for refinement due to curvature/regions             : 15 cells.
Determined cells to refine in = 8.72187 s
Selected for refinement : 15 cells (out of 7104280)
Edge intersection testing:
    Number of edges             : 22762130
    Number of edges to retest   : 1122
    Number of intersected edges : 1762989
Refined mesh in = 9.95869 s
After refinement surface refinement iteration 32 : cells:7104385  faces:22762130  points:8596006
Cells per refinement level:
    0	1594763
    1	748009
    2	443189
    3	2380133
    4	538773
    5	953998
    6	445520
Balanced mesh in = 55.6819 s
After balancing surface refinement iteration 32 : cells:7104385  faces:22762130  points:8596006
Cells per refinement level:
    0	1594763
    1	748009
    2	443189
    3	2380133
    4	538773
    5	953998
    6	445520

Surface refinement iteration 33
------------------------------

Marked for refinement due to surface intersection          : 0 cells.
Marked for refinement due to curvature/regions             : 11 cells.
Determined cells to refine in = 9.37034 s
Selected for refinement : 19 cells (out of 7104385)
Edge intersection testing:
    Number of edges             : 22762583
    Number of edges to retest   : 1604
    Number of intersected edges : 1763061
Refined mesh in = 10.1567 s
After refinement surface refinement iteration 33 : cells:7104518  faces:22762583  points:8596193
Cells per refinement level:
    0	1594763
    1	748009
    2	443181
    3	2380186
    4	538861
    5	953998
    6	445520
Balanced mesh in = 56.5414 s
After balancing surface refinement iteration 33 : cells:7104518  faces:22762583  points:8596193
Cells per refinement level:
    0	1594763
    1	748009
    2	443181
    3	2380186
    4	538861
    5	953998
    6	445520

Surface refinement iteration 34
------------------------------

Marked for refinement due to surface intersection          : 0 cells.
Marked for refinement due to curvature/regions             : 15 cells.
Determined cells to refine in = 10.6252 s
Selected for refinement : 15 cells (out of 7104518)
Edge intersection testing:
    Number of edges             : 22762961
    Number of edges to retest   : 1130
    Number of intersected edges : 1763145
Refined mesh in = 10.301 s
After refinement surface refinement iteration 34 : cells:7104623  faces:22762961  points:8596361
Cells per refinement level:
    0	1594763
    1	748009
    2	443181
    3	2380171
    4	538981
    5	953998
    6	445520
Balanced mesh in = 59.428 s
After balancing surface refinement iteration 34 : cells:7104623  faces:22762961  points:8596361
Cells per refinement level:
    0	1594763
    1	748009
    2	443181
    3	2380171
    4	538981
    5	953998
    6	445520

Surface refinement iteration 35
------------------------------

Marked for refinement due to surface intersection          : 0 cells.
Marked for refinement due to curvature/regions             : 12 cells.
Determined cells to refine in = 10.0142 s
Selected for refinement : 20 cells (out of 7104623)
Edge intersection testing:
    Number of edges             : 22763432
    Number of edges to retest   : 1663
    Number of intersected edges : 1763213
Refined mesh in = 10.2718 s
After refinement surface refinement iteration 35 : cells:7104763  faces:22763432  points:8596552
Cells per refinement level:
    0	1594763
    1	748009
    2	443173
    3	2380223
    4	539077
    5	953998
    6	445520
Balanced mesh in = 55.0242 s
After balancing surface refinement iteration 35 : cells:7104763  faces:22763432  points:8596552
Cells per refinement level:
    0	1594763
    1	748009
    2	443173
    3	2380223
    4	539077
    5	953998
    6	445520

Surface refinement iteration 36
------------------------------

Marked for refinement due to surface intersection          : 0 cells.
Marked for refinement due to curvature/regions             : 13 cells.
Determined cells to refine in = 10.8904 s
Selected for refinement : 13 cells (out of 7104763)
Edge intersection testing:
    Number of edges             : 22763765
    Number of edges to retest   : 999
    Number of intersected edges : 1763293
Refined mesh in = 10.2499 s
After refinement surface refinement iteration 36 : cells:7104854  faces:22763765  points:8596703
Cells per refinement level:
    0	1594763
    1	748009
    2	443173
    3	2380210
    4	539181
    5	953998
    6	445520
Balanced mesh in = 54.3311 s
After balancing surface refinement iteration 36 : cells:7104854  faces:22763765  points:8596703
Cells per refinement level:
    0	1594763
    1	748009
    2	443173
    3	2380210
    4	539181
    5	953998
    6	445520

Surface refinement iteration 37
------------------------------

Marked for refinement due to surface intersection          : 0 cells.
Marked for refinement due to curvature/regions             : 10 cells.
Determined cells to refine in = 11.2793 s
Selected for refinement : 18 cells (out of 7104854)
Edge intersection testing:
    Number of edges             : 22764197
    Number of edges to retest   : 1544
    Number of intersected edges : 1763365
Refined mesh in = 10.0346 s
After refinement surface refinement iteration 37 : cells:7104980  faces:22764197  points:8596883
Cells per refinement level:
    0	1594763
    1	748009
    2	443165
    3	2380264
    4	539261
    5	953998
    6	445520
Balanced mesh in = 57.1706 s
After balancing surface refinement iteration 37 : cells:7104980  faces:22764197  points:8596883
Cells per refinement level:
    0	1594763
    1	748009
    2	443165
    3	2380264
    4	539261
    5	953998
    6	445520

Surface refinement iteration 38
------------------------------

Marked for refinement due to surface intersection          : 0 cells.
Marked for refinement due to curvature/regions             : 14 cells.
Determined cells to refine in = 10.9993 s
Selected for refinement : 14 cells (out of 7104980)
Edge intersection testing:
    Number of edges             : 22764557
    Number of edges to retest   : 1054
    Number of intersected edges : 1763453
Refined mesh in = 9.76667 s
After refinement surface refinement iteration 38 : cells:7105078  faces:22764557  points:8597047
Cells per refinement level:
    0	1594763
    1	748009
    2	443165
    3	2380250
    4	539373
    5	953998
    6	445520
Balanced mesh in = 55.2594 s
After balancing surface refinement iteration 38 : cells:7105078  faces:22764557  points:8597047
Cells per refinement level:
    0	1594763
    1	748009
    2	443165
    3	2380250
    4	539373
    5	953998
    6	445520

Surface refinement iteration 39
------------------------------

Marked for refinement due to surface intersection          : 0 cells.
Marked for refinement due to curvature/regions             : 10 cells.
Determined cells to refine in = 8.71541 s
Selected for refinement : 18 cells (out of 7105078)
Edge intersection testing:
    Number of edges             : 22764986
    Number of edges to retest   : 1546
    Number of intersected edges : 1763521
Refined mesh in = 10.2405 s
After refinement surface refinement iteration 39 : cells:7105204  faces:22764986  points:8597224
Cells per refinement level:
    0	1594763
    1	748009
    2	443157
    3	2380304
    4	539453
    5	953998
    6	445520
Balanced mesh in = 55.8144 s
After balancing surface refinement iteration 39 : cells:7105204  faces:22764986  points:8597224
Cells per refinement level:
    0	1594763
    1	748009
    2	443157
    3	2380304
    4	539453
    5	953998
    6	445520

Surface refinement iteration 40
------------------------------

Marked for refinement due to surface intersection          : 0 cells.
Marked for refinement due to curvature/regions             : 15 cells.
Determined cells to refine in = 10.5261 s
Selected for refinement : 15 cells (out of 7105204)
Edge intersection testing:
    Number of edges             : 22765367
    Number of edges to retest   : 1125
    Number of intersected edges : 1763609
Refined mesh in = 10.1711 s
After refinement surface refinement iteration 40 : cells:7105309  faces:22765367  points:8597395
Cells per refinement level:
    0	1594763
    1	748009
    2	443157
    3	2380289
    4	539573
    5	953998
    6	445520
Balanced mesh in = 53.676 s
After balancing surface refinement iteration 40 : cells:7105309  faces:22765367  points:8597395
Cells per refinement level:
    0	1594763
    1	748009
    2	443157
    3	2380289
    4	539573
    5	953998
    6	445520

Surface refinement iteration 41
------------------------------

Marked for refinement due to surface intersection          : 0 cells.
Marked for refinement due to curvature/regions             : 9 cells.
Determined cells to refine in = 8.97586 s
Selected for refinement : 17 cells (out of 7105309)
Edge intersection testing:
    Number of edges             : 22765772
    Number of edges to retest   : 1494
    Number of intersected edges : 1763673
Refined mesh in = 10.0593 s
After refinement surface refinement iteration 41 : cells:7105428  faces:22765772  points:8597562
Cells per refinement level:
    0	1594763
    1	748009
    2	443149
    3	2380344
    4	539645
    5	953998
    6	445520
Balanced mesh in = 57.8533 s
After balancing surface refinement iteration 41 : cells:7105428  faces:22765772  points:8597562
Cells per refinement level:
    0	1594763
    1	748009
    2	443149
    3	2380344
    4	539645
    5	953998
    6	445520

Surface refinement iteration 42
------------------------------

Marked for refinement due to surface intersection          : 0 cells.
Marked for refinement due to curvature/regions             : 15 cells.
Determined cells to refine in = 10.6991 s
Selected for refinement : 15 cells (out of 7105428)
Edge intersection testing:
    Number of edges             : 22766156
    Number of edges to retest   : 1114
    Number of intersected edges : 1763765
Refined mesh in = 10.1584 s
After refinement surface refinement iteration 42 : cells:7105533  faces:22766156  points:8597736
Cells per refinement level:
    0	1594763
    1	748009
    2	443149
    3	2380329
    4	539765
    5	953998
    6	445520
Balanced mesh in = 58.2628 s
After balancing surface refinement iteration 42 : cells:7105533  faces:22766156  points:8597736
Cells per refinement level:
    0	1594763
    1	748009
    2	443149
    3	2380329
    4	539765
    5	953998
    6	445520

Surface refinement iteration 43
------------------------------

Marked for refinement due to surface intersection          : 0 cells.
Marked for refinement due to curvature/regions             : 12 cells.
Determined cells to refine in = 11.4673 s
Selected for refinement : 20 cells (out of 7105533)
Edge intersection testing:
    Number of edges             : 22766630
    Number of edges to retest   : 1661
    Number of intersected edges : 1763837
Refined mesh in = 10.0737 s
After refinement surface refinement iteration 43 : cells:7105673  faces:22766630  points:8597930
Cells per refinement level:
    0	1594763
    1	748009
    2	443141
    3	2380381
    4	539861
    5	953998
    6	445520
Balanced mesh in = 57.1881 s
After balancing surface refinement iteration 43 : cells:7105673  faces:22766630  points:8597930
Cells per refinement level:
    0	1594763
    1	748009
    2	443141
    3	2380381
    4	539861
    5	953998
    6	445520

Surface refinement iteration 44
------------------------------

Marked for refinement due to surface intersection          : 0 cells.
Marked for refinement due to curvature/regions             : 14 cells.
Determined cells to refine in = 8.95717 s
Selected for refinement : 14 cells (out of 7105673)
Edge intersection testing:
    Number of edges             : 22766984
    Number of edges to retest   : 1070
    Number of intersected edges : 1763917
Refined mesh in = 10.3087 s
After refinement surface refinement iteration 44 : cells:7105771  faces:22766984  points:8598088
Cells per refinement level:
    0	1594763
    1	748009
    2	443141
    3	2380367
    4	539973
    5	953998
    6	445520
Balanced mesh in = 56.1459 s
After balancing surface refinement iteration 44 : cells:7105771  faces:22766984  points:8598088
Cells per refinement level:
    0	1594763
    1	748009
    2	443141
    3	2380367
    4	539973
    5	953998
    6	445520

Surface refinement iteration 45
------------------------------

Marked for refinement due to surface intersection          : 0 cells.
Marked for refinement due to curvature/regions             : 10 cells.
Determined cells to refine in = 10.6194 s
Selected for refinement : 18 cells (out of 7105771)
Edge intersection testing:
    Number of edges             : 22767413
    Number of edges to retest   : 1546
    Number of intersected edges : 1763985
Refined mesh in = 10.2074 s
After refinement surface refinement iteration 45 : cells:7105897  faces:22767413  points:8598265
Cells per refinement level:
    0	1594763
    1	748009
    2	443133
    3	2380421
    4	540053
    5	953998
    6	445520
Balanced mesh in = 53.6095 s
After balancing surface refinement iteration 45 : cells:7105897  faces:22767413  points:8598265
Cells per refinement level:
    0	1594763
    1	748009
    2	443133
    3	2380421
    4	540053
    5	953998
    6	445520

Surface refinement iteration 46
------------------------------

Marked for refinement due to surface intersection          : 0 cells.
Marked for refinement due to curvature/regions             : 13 cells.
Determined cells to refine in = 9.00622 s
Selected for refinement : 13 cells (out of 7105897)
Edge intersection testing:
    Number of edges             : 22767749
    Number of edges to retest   : 991
    Number of intersected edges : 1764069
Refined mesh in = 9.90749 s
After refinement surface refinement iteration 46 : cells:7105988  faces:22767749  points:8598419
Cells per refinement level:
    0	1594763
    1	748009
    2	443133
    3	2380408
    4	540157
    5	953998
    6	445520
Balanced mesh in = 59.4314 s
After balancing surface refinement iteration 46 : cells:7105988  faces:22767749  points:8598419
Cells per refinement level:
    0	1594763
    1	748009
    2	443133
    3	2380408
    4	540157
    5	953998
    6	445520

Surface refinement iteration 47
------------------------------

Marked for refinement due to surface intersection          : 0 cells.
Marked for refinement due to curvature/regions             : 10 cells.
Determined cells to refine in = 10.9901 s
Selected for refinement : 18 cells (out of 7105988)
Edge intersection testing:
    Number of edges             : 22768175
    Number of edges to retest   : 1545
    Number of intersected edges : 1764133
Refined mesh in = 10.2631 s
After refinement surface refinement iteration 47 : cells:7106114  faces:22768175  points:8598593
Cells per refinement level:
    0	1594763
    1	748009
    2	443125
    3	2380462
    4	540237
    5	953998
    6	445520
Balanced mesh in = 56.5191 s
After balancing surface refinement iteration 47 : cells:7106114  faces:22768175  points:8598593
Cells per refinement level:
    0	1594763
    1	748009
    2	443125
    3	2380462
    4	540237
    5	953998
    6	445520

Surface refinement iteration 48
------------------------------

Marked for refinement due to surface intersection          : 0 cells.
Marked for refinement due to curvature/regions             : 12 cells.
Determined cells to refine in = 10.7976 s
Selected for refinement : 12 cells (out of 7106114)
Edge intersection testing:
    Number of edges             : 22768487
    Number of edges to retest   : 928
    Number of intersected edges : 1764213
Refined mesh in = 10.0554 s
After refinement surface refinement iteration 48 : cells:7106198  faces:22768487  points:8598737
Cells per refinement level:
    0	1594763
    1	748009
    2	443125
    3	2380450
    4	540333
    5	953998
    6	445520
Balanced mesh in = 55.9948 s
After balancing surface refinement iteration 48 : cells:7106198  faces:22768487  points:8598737
Cells per refinement level:
    0	1594763
    1	748009
    2	443125
    3	2380450
    4	540333
    5	953998
    6	445520

Surface refinement iteration 49
------------------------------

Marked for refinement due to surface intersection          : 0 cells.
Marked for refinement due to curvature/regions             : 10 cells.
Determined cells to refine in = 8.80082 s
Selected for refinement : 18 cells (out of 7106198)
Edge intersection testing:
    Number of edges             : 22768916
    Number of edges to retest   : 1540
    Number of intersected edges : 1764281
Refined mesh in = 10.195 s
After refinement surface refinement iteration 49 : cells:7106324  faces:22768916  points:8598914
Cells per refinement level:
    0	1594763
    1	748009
    2	443117
    3	2380504
    4	540413
    5	953998
    6	445520
Balanced mesh in = 56.8101 s
After balancing surface refinement iteration 49 : cells:7106324  faces:22768916  points:8598914
Cells per refinement level:
    0	1594763
    1	748009
    2	443117
    3	2380504
    4	540413
    5	953998
    6	445520

Surface refinement iteration 50
------------------------------

Marked for refinement due to surface intersection          : 0 cells.
Marked for refinement due to curvature/regions             : 15 cells.
Determined cells to refine in = 11.6217 s
Selected for refinement : 15 cells (out of 7106324)
Edge intersection testing:
    Number of edges             : 22769297
    Number of edges to retest   : 1119
    Number of intersected edges : 1764369
Refined mesh in = 10.0884 s
After refinement surface refinement iteration 50 : cells:7106429  faces:22769297  points:8599085
Cells per refinement level:
    0	1594763
    1	748009
    2	443117
    3	2380489
    4	540533
    5	953998
    6	445520
Balanced mesh in = 56.3011 s
After balancing surface refinement iteration 50 : cells:7106429  faces:22769297  points:8599085
Cells per refinement level:
    0	1594763
    1	748009
    2	443117
    3	2380489
    4	540533
    5	953998
    6	445520

Surface refinement iteration 51
------------------------------

Marked for refinement due to surface intersection          : 0 cells.
Marked for refinement due to curvature/regions             : 11 cells.
Determined cells to refine in = 11.9417 s
Selected for refinement : 19 cells (out of 7106429)
Edge intersection testing:
    Number of edges             : 22769750
    Number of edges to retest   : 1607
    Number of intersected edges : 1764441
Refined mesh in = 10.3667 s
After refinement surface refinement iteration 51 : cells:7106562  faces:22769750  points:8599272
Cells per refinement level:
    0	1594763
    1	748009
    2	443109
    3	2380542
    4	540621
    5	953998
    6	445520
Balanced mesh in = 56.3219 s
After balancing surface refinement iteration 51 : cells:7106562  faces:22769750  points:8599272
Cells per refinement level:
    0	1594763
    1	748009
    2	443109
    3	2380542
    4	540621
    5	953998
    6	445520

Surface refinement iteration 52
------------------------------

Marked for refinement due to surface intersection          : 0 cells.
Marked for refinement due to curvature/regions             : 15 cells.
Determined cells to refine in = 9.19247 s
Selected for refinement : 15 cells (out of 7106562)
Edge intersection testing:
    Number of edges             : 22770128
    Number of edges to retest   : 1130
    Number of intersected edges : 1764525
Refined mesh in = 10.2269 s
After refinement surface refinement iteration 52 : cells:7106667  faces:22770128  points:8599440
Cells per refinement level:
    0	1594763
    1	748009
    2	443109
    3	2380527
    4	540741
    5	953998
    6	445520
Balanced mesh in = 55.0541 s
After balancing surface refinement iteration 52 : cells:7106667  faces:22770128  points:8599440
Cells per refinement level:
    0	1594763
    1	748009
    2	443109
    3	2380527
    4	540741
    5	953998
    6	445520

Surface refinement iteration 53
------------------------------

Marked for refinement due to surface intersection          : 0 cells.
Marked for refinement due to curvature/regions             : 10 cells.
Determined cells to refine in = 10.1135 s
Selected for refinement : 18 cells (out of 7106667)
Edge intersection testing:
    Number of edges             : 22770557
    Number of edges to retest   : 1549
    Number of intersected edges : 1764593
Refined mesh in = 10.0817 s
After refinement surface refinement iteration 53 : cells:7106793  faces:22770557  points:8599617
Cells per refinement level:
    0	1594763
    1	748009
    2	443101
    3	2380581
    4	540821
    5	953998
    6	445520
Balanced mesh in = 56.4651 s
After balancing surface refinement iteration 53 : cells:7106793  faces:22770557  points:8599617
Cells per refinement level:
    0	1594763
    1	748009
    2	443101
    3	2380581
    4	540821
    5	953998
    6	445520

Surface refinement iteration 54
------------------------------

Marked for refinement due to surface intersection          : 0 cells.
Marked for refinement due to curvature/regions             : 15 cells.
Determined cells to refine in = 9.58264 s
Selected for refinement : 15 cells (out of 7106793)
Edge intersection testing:
    Number of edges             : 22770941
    Number of edges to retest   : 1126
    Number of intersected edges : 1764685
Refined mesh in = 10.1386 s
After refinement surface refinement iteration 54 : cells:7106898  faces:22770941  points:8599791
Cells per refinement level:
    0	1594763
    1	748009
    2	443101
    3	2380566
    4	540941
    5	953998
    6	445520
Balanced mesh in = 57.9159 s
After balancing surface refinement iteration 54 : cells:7106898  faces:22770941  points:8599791
Cells per refinement level:
    0	1594763
    1	748009
    2	443101
    3	2380566
    4	540941
    5	953998
    6	445520

Surface refinement iteration 55
------------------------------

Marked for refinement due to surface intersection          : 0 cells.
Marked for refinement due to curvature/regions             : 8 cells.
Determined cells to refine in = 9.57367 s
Selected for refinement : 16 cells (out of 7106898)
Edge intersection testing:
    Number of edges             : 22771325
    Number of edges to retest   : 1437
    Number of intersected edges : 1764749
Refined mesh in = 9.99618 s
After refinement surface refinement iteration 55 : cells:7107010  faces:22771325  points:8599951
Cells per refinement level:
    0	1594763
    1	748009
    2	443093
    3	2380622
    4	541005
    5	953998
    6	445520
Balanced mesh in = 57.9457 s
After balancing surface refinement iteration 55 : cells:7107010  faces:22771325  points:8599951
Cells per refinement level:
    0	1594763
    1	748009
    2	443093
    3	2380622
    4	541005
    5	953998
    6	445520

Surface refinement iteration 56
------------------------------

Marked for refinement due to surface intersection          : 0 cells.
Marked for refinement due to curvature/regions             : 11 cells.
Determined cells to refine in = 8.7817 s
Selected for refinement : 11 cells (out of 7107010)
Edge intersection testing:
    Number of edges             : 22771613
    Number of edges to retest   : 859
    Number of intersected edges : 1764825
Refined mesh in = 9.96423 s
After refinement surface refinement iteration 56 : cells:7107087  faces:22771613  points:8600085
Cells per refinement level:
    0	1594763
    1	748009
    2	443093
    3	2380611
    4	541093
    5	953998
    6	445520
Balanced mesh in = 56.6014 s
After balancing surface refinement iteration 56 : cells:7107087  faces:22771613  points:8600085
Cells per refinement level:
    0	1594763
    1	748009
    2	443093
    3	2380611
    4	541093
    5	953998
    6	445520

Surface refinement iteration 57
------------------------------

Marked for refinement due to surface intersection          : 0 cells.
Marked for refinement due to curvature/regions             : 10 cells.
Determined cells to refine in = 10.8475 s
Selected for refinement : 18 cells (out of 7107087)
Edge intersection testing:
    Number of edges             : 22772045
    Number of edges to retest   : 1535
    Number of intersected edges : 1764897
Refined mesh in = 10.0161 s
After refinement surface refinement iteration 57 : cells:7107213  faces:22772045  points:8600265
Cells per refinement level:
    0	1594763
    1	748009
    2	443085
    3	2380665
    4	541173
    5	953998
    6	445520
Balanced mesh in = 56.727 s
After balancing surface refinement iteration 57 : cells:7107213  faces:22772045  points:8600265
Cells per refinement level:
    0	1594763
    1	748009
    2	443085
    3	2380665
    4	541173
    5	953998
    6	445520

Surface refinement iteration 58
------------------------------

Marked for refinement due to surface intersection          : 0 cells.
Marked for refinement due to curvature/regions             : 14 cells.
Determined cells to refine in = 10.5956 s
Selected for refinement : 14 cells (out of 7107213)
Edge intersection testing:
    Number of edges             : 22772405
    Number of edges to retest   : 1057
    Number of intersected edges : 1764985
Refined mesh in = 9.98879 s
After refinement surface refinement iteration 58 : cells:7107311  faces:22772405  points:8600429
Cells per refinement level:
    0	1594763
    1	748009
    2	443085
    3	2380651
    4	541285
    5	953998
    6	445520
Balanced mesh in = 59.6287 s
After balancing surface refinement iteration 58 : cells:7107311  faces:22772405  points:8600429
Cells per refinement level:
    0	1594763
    1	748009
    2	443085
    3	2380651
    4	541285
    5	953998
    6	445520

Surface refinement iteration 59
------------------------------

Marked for refinement due to surface intersection          : 0 cells.
Marked for refinement due to curvature/regions             : 8 cells.
Determined cells to refine in = 10.571 s
Selected for refinement : 16 cells (out of 7107311)
Edge intersection testing:
    Number of edges             : 22772789
    Number of edges to retest   : 1434
    Number of intersected edges : 1765049
Refined mesh in = 9.99145 s
After refinement surface refinement iteration 59 : cells:7107423  faces:22772789  points:8600589
Cells per refinement level:
    0	1594763
    1	748009
    2	443077
    3	2380707
    4	541349
    5	953998
    6	445520
Balanced mesh in = 55.614 s
After balancing surface refinement iteration 59 : cells:7107423  faces:22772789  points:8600589
Cells per refinement level:
    0	1594763
    1	748009
    2	443077
    3	2380707
    4	541349
    5	953998
    6	445520

Surface refinement iteration 60
------------------------------

Marked for refinement due to surface intersection          : 0 cells.
Marked for refinement due to curvature/regions             : 16 cells.
Determined cells to refine in = 9.30882 s
Selected for refinement : 16 cells (out of 7107423)
Edge intersection testing:
    Number of edges             : 22773197
    Number of edges to retest   : 1180
    Number of intersected edges : 1765145
Refined mesh in = 10.0091 s
After refinement surface refinement iteration 60 : cells:7107535  faces:22773197  points:8600773
Cells per refinement level:
    0	1594763
    1	748009
    2	443077
    3	2380691
    4	541477
    5	953998
    6	445520
Balanced mesh in = 56.6559 s
After balancing surface refinement iteration 60 : cells:7107535  faces:22773197  points:8600773
Cells per refinement level:
    0	1594763
    1	748009
    2	443077
    3	2380691
    4	541477
    5	953998
    6	445520

Surface refinement iteration 61
------------------------------

Marked for refinement due to surface intersection          : 0 cells.
Marked for refinement due to curvature/regions             : 8 cells.
Determined cells to refine in = 11.0546 s
Selected for refinement : 16 cells (out of 7107535)
Edge intersection testing:
    Number of edges             : 22773581
    Number of edges to retest   : 1440
    Number of intersected edges : 1765209
Refined mesh in = 10.2137 s
After refinement surface refinement iteration 61 : cells:7107647  faces:22773581  points:8600933
Cells per refinement level:
    0	1594763
    1	748009
    2	443069
    3	2380747
    4	541541
    5	953998
    6	445520
Balanced mesh in = 57.1067 s
After balancing surface refinement iteration 61 : cells:7107647  faces:22773581  points:8600933
Cells per refinement level:
    0	1594763
    1	748009
    2	443069
    3	2380747
    4	541541
    5	953998
    6	445520

Surface refinement iteration 62
------------------------------

Marked for refinement due to surface intersection          : 0 cells.
Marked for refinement due to curvature/regions             : 15 cells.
Determined cells to refine in = 10.0706 s
Selected for refinement : 15 cells (out of 7107647)
Edge intersection testing:
    Number of edges             : 22773965
    Number of edges to retest   : 1120
    Number of intersected edges : 1765301
Refined mesh in = 9.92306 s
After refinement surface refinement iteration 62 : cells:7107752  faces:22773965  points:8601107
Cells per refinement level:
    0	1594763
    1	748009
    2	443069
    3	2380732
    4	541661
    5	953998
    6	445520
Balanced mesh in = 59.114 s
After balancing surface refinement iteration 62 : cells:7107752  faces:22773965  points:8601107
Cells per refinement level:
    0	1594763
    1	748009
    2	443069
    3	2380732
    4	541661
    5	953998
    6	445520

Surface refinement iteration 63
------------------------------

Marked for refinement due to surface intersection          : 0 cells.
Marked for refinement due to curvature/regions             : 10 cells.
Determined cells to refine in = 9.97402 s
Selected for refinement : 18 cells (out of 7107752)
Edge intersection testing:
    Number of edges             : 22774397
    Number of edges to retest   : 1547
    Number of intersected edges : 1765373
Refined mesh in = 9.93511 s
After refinement surface refinement iteration 63 : cells:7107878  faces:22774397  points:8601287
Cells per refinement level:
    0	1594763
    1	748009
    2	443061
    3	2380786
    4	541741
    5	953998
    6	445520
Balanced mesh in = 56.0562 s
After balancing surface refinement iteration 63 : cells:7107878  faces:22774397  points:8601287
Cells per refinement level:
    0	1594763
    1	748009
    2	443061
    3	2380786
    4	541741
    5	953998
    6	445520

Surface refinement iteration 64
------------------------------

Marked for refinement due to surface intersection          : 0 cells.
Marked for refinement due to curvature/regions             : 14 cells.
Determined cells to refine in = 10.7644 s
Selected for refinement : 14 cells (out of 7107878)
Edge intersection testing:
    Number of edges             : 22774754
    Number of edges to retest   : 1056
    Number of intersected edges : 1765457
Refined mesh in = 10.3797 s
After refinement surface refinement iteration 64 : cells:7107976  faces:22774754  points:8601448
Cells per refinement level:
    0	1594763
    1	748009
    2	443061
    3	2380772
    4	541853
    5	953998
    6	445520
Balanced mesh in = 55.7852 s
After balancing surface refinement iteration 64 : cells:7107976  faces:22774754  points:8601448
Cells per refinement level:
    0	1594763
    1	748009
    2	443061
    3	2380772
    4	541853
    5	953998
    6	445520

Surface refinement iteration 65
------------------------------

Marked for refinement due to surface intersection          : 0 cells.
Marked for refinement due to curvature/regions             : 10 cells.
Determined cells to refine in = 9.89382 s
Selected for refinement : 18 cells (out of 7107976)
Edge intersection testing:
    Number of edges             : 22775183
    Number of edges to retest   : 1546
    Number of intersected edges : 1765525
Refined mesh in = 10.3978 s
After refinement surface refinement iteration 65 : cells:7108102  faces:22775183  points:8601625
Cells per refinement level:
    0	1594763
    1	748009
    2	443053
    3	2380826
    4	541933
    5	953998
    6	445520
Balanced mesh in = 55.6515 s
After balancing surface refinement iteration 65 : cells:7108102  faces:22775183  points:8601625
Cells per refinement level:
    0	1594763
    1	748009
    2	443053
    3	2380826
    4	541933
    5	953998
    6	445520

Surface refinement iteration 66
------------------------------

Marked for refinement due to surface intersection          : 0 cells.
Marked for refinement due to curvature/regions             : 13 cells.
Determined cells to refine in = 9.13607 s
Selected for refinement : 13 cells (out of 7108102)
Edge intersection testing:
    Number of edges             : 22775516
    Number of edges to retest   : 990
    Number of intersected edges : 1765605
Refined mesh in = 10.189 s
After refinement surface refinement iteration 66 : cells:7108193  faces:22775516  points:8601776
Cells per refinement level:
    0	1594763
    1	748009
    2	443053
    3	2380813
    4	542037
    5	953998
    6	445520
Balanced mesh in = 56.4826 s
After balancing surface refinement iteration 66 : cells:7108193  faces:22775516  points:8601776
Cells per refinement level:
    0	1594763
    1	748009
    2	443053
    3	2380813
    4	542037
    5	953998
    6	445520

Surface refinement iteration 67
------------------------------

Marked for refinement due to surface intersection          : 0 cells.
Marked for refinement due to curvature/regions             : 10 cells.
Determined cells to refine in = 11.1554 s
Selected for refinement : 18 cells (out of 7108193)
Edge intersection testing:
    Number of edges             : 22775948
    Number of edges to retest   : 1541
    Number of intersected edges : 1765677
Refined mesh in = 10.1491 s
After refinement surface refinement iteration 67 : cells:7108319  faces:22775948  points:8601956
Cells per refinement level:
    0	1594763
    1	748009
    2	443045
    3	2380867
    4	542117
    5	953998
    6	445520
Balanced mesh in = 58.0448 s
After balancing surface refinement iteration 67 : cells:7108319  faces:22775948  points:8601956
Cells per refinement level:
    0	1594763
    1	748009
    2	443045
    3	2380867
    4	542117
    5	953998
    6	445520

Surface refinement iteration 68
------------------------------

Marked for refinement due to surface intersection          : 0 cells.
Marked for refinement due to curvature/regions             : 11 cells.
Determined cells to refine in = 10.1529 s
Selected for refinement : 11 cells (out of 7108319)
Edge intersection testing:
    Number of edges             : 22776233
    Number of edges to retest   : 861
    Number of intersected edges : 1765749
Refined mesh in = 10.037 s
After refinement surface refinement iteration 68 : cells:7108396  faces:22776233  points:8602087
Cells per refinement level:
    0	1594763
    1	748009
    2	443045
    3	2380856
    4	542205
    5	953998
    6	445520
Balanced mesh in = 54.8359 s
After balancing surface refinement iteration 68 : cells:7108396  faces:22776233  points:8602087
Cells per refinement level:
    0	1594763
    1	748009
    2	443045
    3	2380856
    4	542205
    5	953998
    6	445520

Surface refinement iteration 69
------------------------------

Marked for refinement due to surface intersection          : 0 cells.
Marked for refinement due to curvature/regions             : 8 cells.
Determined cells to refine in = 11.6886 s
Selected for refinement : 16 cells (out of 7108396)
Edge intersection testing:
    Number of edges             : 22776617
    Number of edges to retest   : 1425
    Number of intersected edges : 1765813
Refined mesh in = 10.0689 s
After refinement surface refinement iteration 69 : cells:7108508  faces:22776617  points:8602247
Cells per refinement level:
    0	1594763
    1	748009
    2	443037
    3	2380912
    4	542269
    5	953998
    6	445520
Balanced mesh in = 60.6382 s
After balancing surface refinement iteration 69 : cells:7108508  faces:22776617  points:8602247
Cells per refinement level:
    0	1594763
    1	748009
    2	443037
    3	2380912
    4	542269
    5	953998
    6	445520

Surface refinement iteration 70
------------------------------

Marked for refinement due to surface intersection          : 0 cells.
Marked for refinement due to curvature/regions             : 14 cells.
Determined cells to refine in = 10.8928 s
[...]
    For point:43091 coordinate:(-0.00702484 -2.48967 -0.00686891) did not find any surface within:0.0003125 metre.
--> FOAM Warning : 
    From function static Foam::vectorField Foam::snappySnapDriver::calcNearestSurface(const meshRefinement &, const scalarField &, const indirectPrimitivePatch &, pointField &, vectorField &)
    in file snappyHexMeshDriver/snappySnapDriver.C at line 1605
    For point:43094 coordinate:(-0.00749426 -2.48967 -0.0064) did not find any surface within:0.0003125 metre.
--> FOAM Warning : 
    From function static Foam::vectorField Foam::snappySnapDriver::calcNearestSurface(const meshRefinement &, const scalarField &, const indirectPrimitivePatch &, pointField &, vectorField &)
    in file snappyHexMeshDriver/snappySnapDriver.C at line 1605
    For point:43352 coordinate:(-0.00453053 -2.48963 0.00874416) did not find any surface within:0.0003125 metre.
--> FOAM Warning : 
    From function static Foam::vectorField Foam::snappySnapDriver::calcNearestSurface(const meshRefinement &, const scalarField &, const indirectPrimitivePatch &, pointField &, vectorField &)
    in file snappyHexMeshDriver/snappySnapDriver.C at line 1605
    For point:43561 coordinate:(0.0087439 -2.48965 -0.00453073) did not find any surface within:0.0003125 metre.
--> FOAM Warning : 
    From function static Foam::vectorField Foam::snappySnapDriver::calcNearestSurface(const meshRefinement &, const scalarField &, const indirectPrimitivePatch &, pointField &, vectorField &)
    in file snappyHexMeshDriver/snappySnapDriver.C at line 1605
    For point:43744 coordinate:(0.0087439 -2.48965 0.00453073) did not find any surface within:0.0003125 metre.
--> FOAM Warning : 
    From function static Foam::vectorField Foam::snappySnapDriver::calcNearestSurface(const meshRefinement &, const scalarField &, const indirectPrimitivePatch &, pointField &, vectorField &)
    in file snappyHexMeshDriver/snappySnapDriver.C at line 1605
    For point:43841 coordinate:(-0.00874401 -2.48965 -0.00453078) did not find any surface within:0.0003125 metre.
--> FOAM Warning : 
    From function static Foam::vectorField Foam::snappySnapDriver::calcNearestSurface(const meshRefinement &, const scalarField &, const indirectPrimitivePatch &, pointField &, vectorField &)
    in file snappyHexMeshDriver/snappySnapDriver.C at line 1605
    For point:47016 coordinate:(0.00718036 -2.48967 0.00671244) did not find any surface within:0.0003125 metre.
--> FOAM Warning : 
    From function static Foam::vectorField Foam::snappySnapDriver::calcNearestSurface(const meshRefinement &, const scalarField &, const indirectPrimitivePatch &, pointField &, vectorField &)
    in file snappyHexMeshDriver/snappySnapDriver.C at line 1605
    For point:47024 coordinate:(0.00671255 -2.48967 0.00718056) did not find any surface within:0.0003125 metre.
--> FOAM Warning : 
    From function static Foam::vectorField Foam::snappySnapDriver::calcNearestSurface(const meshRefinement &, const scalarField &, const indirectPrimitivePatch &, pointField &, vectorField &)
    in file snappyHexMeshDriver/snappySnapDriver.C at line 1605
    For point:47521 coordinate:(-0.0067132 -2.48966 -0.00718125) did not find any surface within:0.0003125 metre.
--> FOAM Warning : 
    From function static Foam::vectorField Foam::snappySnapDriver::calcNearestSurface(const meshRefinement &, const scalarField &, const indirectPrimitivePatch &, pointField &, vectorField &)
    in file snappyHexMeshDriver/snappySnapDriver.C at line 1605
    For point:47529 coordinate:(-0.00718055 -2.48967 -0.00671264) did not find any surface within:0.0003125 metre.
--> FOAM Warning : 
    From function static Foam::vectorField Foam::snappySnapDriver::calcNearestSurface(const meshRefinement &, const scalarField &, const indirectPrimitivePatch &, pointField &, vectorField &)
    in file snappyHexMeshDriver/snappySnapDriver.C at line 1605
    For point:48019 coordinate:(-0.00874401 -2.48965 0.00453078) did not find any surface within:0.0003125 metre.
--> FOAM Warning : 
    From function static Foam::vectorField Foam::snappySnapDriver::calcNearestSurface(const meshRefinement &, const scalarField &, const indirectPrimitivePatch &, pointField &, vectorField &)
    in file snappyHexMeshDriver/snappySnapDriver.C at line 1605
    For point:48060 coordinate:(-0.00640032 -2.48968 0.00749497) did not find any surface within:0.0003125 metre.
--> FOAM Warning : 
    From function static Foam::vectorField Foam::snappySnapDriver::calcNearestSurface(const meshRefinement &, const scalarField &, const indirectPrimitivePatch &, pointField &, vectorField &)
    in file snappyHexMeshDriver/snappySnapDriver.C at line 1605
    For point:48064 coordinate:(-0.00702484 -2.48967 0.00686891) did not find any surface within:0.0003125 metre.
--> FOAM Warning : 
    From function static Foam::vectorField Foam::snappySnapDriver::calcNearestSurface(const meshRefinement &, const scalarField &, const indirectPrimitivePatch &, pointField &, vectorField &)
    in file snappyHexMeshDriver/snappySnapDriver.C at line 1605
    For point:48069 coordinate:(-0.00749426 -2.48967 0.0064) did not find any surface within:0.0003125 metre.
--> FOAM Warning : 
    From function static Foam::vectorField Foam::snappySnapDriver::calcNearestSurface(const meshRefinement &, const scalarField &, const indirectPrimitivePatch &, pointField &, vectorField &)
    in file snappyHexMeshDriver/snappySnapDriver.C at line 1605
    For point:48557 coordinate:(0.00453073 -2.48965 -0.0087439) did not find any surface within:0.0003125 metre.
--> FOAM Warning : 
    From function static Foam::vectorField Foam::snappySnapDriver::calcNearestSurface(const meshRefinement &, const scalarField &, const indirectPrimitivePatch &, pointField &, vectorField &)
    in file snappyHexMeshDriver/snappySnapDriver.C at line 1605
    For point:48603 coordinate:(0.00702448 -2.48967 -0.00686855) did not find any surface within:0.0003125 metre.
--> FOAM Warning : 
    From function static Foam::vectorField Foam::snappySnapDriver::calcNearestSurface(const meshRefinement &, const scalarField &, const indirectPrimitivePatch &, pointField &, vectorField &)
    in file snappyHexMeshDriver/snappySnapDriver.C at line 1605
    For point:48609 coordinate:(0.00749475 -2.48968 -0.00640032) did not find any surface within:0.0003125 metre.
--> FOAM Warning : 
    From function static Foam::vectorField Foam::snappySnapDriver::calcNearestSurface(const meshRefinement &, const scalarField &, const indirectPrimitivePatch &, pointField &, vectorField &)
    in file snappyHexMeshDriver/snappySnapDriver.C at line 1605
    For point:48615 coordinate:(0.00640031 -2.48968 -0.00749486) did not find any surface within:0.0003125 metre.
--> FOAM Warning : 
    From function static Foam::vectorField Foam::snappySnapDriver::calcNearestSurface(const meshRefinement &, const scalarField &, const indirectPrimitivePatch &, pointField &, vectorField &)
    in file snappyHexMeshDriver/snappySnapDriver.C at line 1605
    For point:52259 coordinate:(-0.0067132 -2.48966 0.00718125) did not find any surface within:0.0003125 metre.
--> FOAM Warning : 
    From function static Foam::vectorField Foam::snappySnapDriver::calcNearestSurface(const meshRefinement &, const scalarField &, const indirectPrimitivePatch &, pointField &, vectorField &)
    in file snappyHexMeshDriver/snappySnapDriver.C at line 1605
    For point:52266 coordinate:(-0.00718055 -2.48967 0.00671264) did not find any surface within:0.0003125 metre.
--> FOAM Warning : 
    From function static Foam::vectorField Foam::snappySnapDriver::calcNearestSurface(const meshRefinement &, const scalarField &, const indirectPrimitivePatch &, pointField &, vectorField &)
    in file snappyHexMeshDriver/snappySnapDriver.C at line 1605
    For point:52653 coordinate:(0.00718036 -2.48967 -0.00671244) did not find any surface within:0.0003125 metre.
--> FOAM Warning : 
    From function static Foam::vectorField Foam::snappySnapDriver::calcNearestSurface(const meshRefinement &, const scalarField &, const indirectPrimitivePatch &, pointField &, vectorField &)
    in file snappyHexMeshDriver/snappySnapDriver.C at line 1605
    For point:52661 coordinate:(0.00671255 -2.48967 -0.00718056) did not find any surface within:0.0003125 metre.
Wanted displacement : average:2.97349e-06 min:0 max:0.000312274
Calculated surface displacement in = 1.88154 s


Detecting near surfaces ...
Overriding nearest with intersection of close gaps at 47685 out of 563639 points.
Overriding displacement on features :
   implicit features    : false
   explicit features    : true
   multi-patch features : false

Detected 417 baffle edges out of 1105028 edges.
Initially selected 11666 points out of 563639 for reverse attraction.
Selected 35621 points out of 563639 for reverse attraction.
Stringing feature edges : changed 0 points
Attraction:
     linear   : max:(-5.47846e-05 -0.00045277 5.4609e-05) avg:(-1.41557e-08 1.00762e-07 -2.45065e-08)
     feature  : max:(0 0 0) avg:(0 0 0)
Feature analysis : total master points:558045 attraction to :
    feature point   : 0
    feature edge    : 0
    nearest surface : 0
    rest            : 558045

--> FOAM Warning : Displacement (0 0 -1.1305e-06) at mesh point 18421 coord (-0.0175017 -2.45553 0.0190511) points through the surrounding patch faces
Smoothing displacement ...
Iteration 0
Iteration 10
Iteration 20
Iteration 30
Iteration 40
Iteration 50
Iteration 60
Iteration 70
Iteration 80
Iteration 90
Displacement smoothed in = 34.838 s


Moving mesh ...

Iteration 0
Moving mesh using displacement scaling : min:1  max:1
Checking faces in error :
    non-orthogonality > 65  degrees                        : 4247
    faces with face pyramid volume < 1e-13                 : 64
    faces with face-decomposition tet quality < 1e-15      : 181
    faces with concavity > 80  degrees                     : 12
    faces with skewness > 4   (internal) or 20  (boundary) : 0
    faces with interpolation weights (0..1)  < 0.02        : 0
    faces with volume ratio of neighbour cells < 0.01      : 0
    faces with face twist < 0.02                           : 80
    faces on cells with determinant < 0.001                : 0

Iteration 1
Moving mesh using displacement scaling : min:0.75  max:1
Checking faces in error :
    non-orthogonality > 65  degrees                        : 4196
    faces with face pyramid volume < 1e-13                 : 64
    faces with face-decomposition tet quality < 1e-15      : 145
    faces with concavity > 80  degrees                     : 12
    faces with skewness > 4   (internal) or 20  (boundary) : 0
    faces with interpolation weights (0..1)  < 0.02        : 0
    faces with volume ratio of neighbour cells < 0.01      : 0
    faces with face twist < 0.02                           : 75
    faces on cells with determinant < 0.001                : 0

Iteration 2
Moving mesh using displacement scaling : min:0.5625  max:1
Checking faces in error :
    non-orthogonality > 65  degrees                        : 4113
    faces with face pyramid volume < 1e-13                 : 66
    faces with face-decomposition tet quality < 1e-15      : 113
    faces with concavity > 80  degrees                     : 20
    faces with skewness > 4   (internal) or 20  (boundary) : 0
    faces with interpolation weights (0..1)  < 0.02        : 0
    faces with volume ratio of neighbour cells < 0.01      : 0
    faces with face twist < 0.02                           : 87
    faces on cells with determinant < 0.001                : 0

Iteration 3
Moving mesh using displacement scaling : min:0.421875  max:1
Checking faces in error :
    non-orthogonality > 65  degrees                        : 3953
    faces with face pyramid volume < 1e-13                 : 64
    faces with face-decomposition tet quality < 1e-15      : 104
    faces with concavity > 80  degrees                     : 20
    faces with skewness > 4   (internal) or 20  (boundary) : 0
    faces with interpolation weights (0..1)  < 0.02        : 0
    faces with volume ratio of neighbour cells < 0.01      : 0
    faces with face twist < 0.02                           : 96
    faces on cells with determinant < 0.001                : 0

Iteration 4
Moving mesh using displacement scaling : min:0.316406  max:1
Checking faces in error :
    non-orthogonality > 65  degrees                        : 3753
    faces with face pyramid volume < 1e-13                 : 70
    faces with face-decomposition tet quality < 1e-15      : 78
    faces with concavity > 80  degrees                     : 20
    faces with skewness > 4   (internal) or 20  (boundary) : 0
    faces with interpolation weights (0..1)  < 0.02        : 0
    faces with volume ratio of neighbour cells < 0.01      : 0
    faces with face twist < 0.02                           : 107
    faces on cells with determinant < 0.001                : 0

Iteration 5
Displacement scaling for error reduction set to 0.
Moving mesh using displacement scaling : min:0.237305  max:1
Checking faces in error :
    non-orthogonality > 65  degrees                        : 3608
    faces with face pyramid volume < 1e-13                 : 70
    faces with face-decomposition tet quality < 1e-15      : 58
    faces with concavity > 80  degrees                     : 20
    faces with skewness > 4   (internal) or 20  (boundary) : 0
    faces with interpolation weights (0..1)  < 0.02        : 0
    faces with volume ratio of neighbour cells < 0.01      : 0
    faces with face twist < 0.02                           : 109
    faces on cells with determinant < 0.001                : 0

Iteration 6
Moving mesh using displacement scaling : min:0  max:1
Checking faces in error :
    non-orthogonality > 65  degrees                        : 73
    faces with face pyramid volume < 1e-13                 : 0
    faces with face-decomposition tet quality < 1e-15      : 2
    faces with concavity > 80  degrees                     : 0
    faces with skewness > 4   (internal) or 20  (boundary) : 0
    faces with interpolation weights (0..1)  < 0.02        : 0
    faces with volume ratio of neighbour cells < 0.01      : 0
    faces with face twist < 0.02                           : 2
    faces on cells with determinant < 0.001                : 0

Iteration 7
Moving mesh using displacement scaling : min:0  max:1
Checking faces in error :
    non-orthogonality > 65  degrees                        : 1
    faces with face pyramid volume < 1e-13                 : 0
    faces with face-decomposition tet quality < 1e-15      : 0
    faces with concavity > 80  degrees                     : 2
    faces with skewness > 4   (internal) or 20  (boundary) : 0
    faces with interpolation weights (0..1)  < 0.02        : 0
    faces with volume ratio of neighbour cells < 0.01      : 0
    faces with face twist < 0.02                           : 0
    faces on cells with determinant < 0.001                : 0

Iteration 8
Moving mesh using displacement scaling : min:0  max:1
Checking faces in error :
    non-orthogonality > 65  degrees                        : 0
    faces with face pyramid volume < 1e-13                 : 0
    faces with face-decomposition tet quality < 1e-15      : 0
    faces with concavity > 80  degrees                     : 0
    faces with skewness > 4   (internal) or 20  (boundary) : 0
    faces with interpolation weights (0..1)  < 0.02        : 0
    faces with volume ratio of neighbour cells < 0.01      : 0
    faces with face twist < 0.02                           : 0
    faces on cells with determinant < 0.001                : 0
Successfully moved mesh
Moved mesh in = 188.616 s


Repatching faces according to nearest surface ...
Repatched 24897 faces in = 2.05831 s


Edge intersection testing:
    Number of edges             : 17125971
    Number of edges to retest   : 3132711
    Number of intersected edges : 539063
Merging 46578 sets of faces.

Edge intersection testing:
    Number of edges             : 17074703
    Number of edges to retest   : 188821
    Number of intersected edges : 487994

Undo iteration 0
----------------
Checking faces in error :
    non-orthogonality > 65  degrees                        : 215
    faces with face pyramid volume < 1e-13                 : 0
    faces with face-decomposition tet quality < 1e-15      : 6
    faces with concavity > 80  degrees                     : 0
    faces with skewness > 4   (internal) or 20  (boundary) : 0
    faces with interpolation weights (0..1)  < 0.02        : 0
    faces with volume ratio of neighbour cells < 0.01      : 0
    faces with face twist < 0.02                           : 0
    faces on cells with determinant < 0.001                : 0
Masters that need to be restored:219
Edge intersection testing:
    Number of edges             : 17074983
    Number of edges to retest   : 1376
    Number of intersected edges : 488192


Undo iteration 1
----------------
Checking faces in error :
    non-orthogonality > 65  degrees                        : 0
    faces with face pyramid volume < 1e-13                 : 0
    faces with face-decomposition tet quality < 1e-15      : 0
    faces with concavity > 80  degrees                     : 0
    faces with skewness > 4   (internal) or 20  (boundary) : 0
    faces with interpolation weights (0..1)  < 0.02        : 0
    faces with volume ratio of neighbour cells < 0.01      : 0
    faces with face twist < 0.02                           : 0
    faces on cells with determinant < 0.001                : 0

Merging all points on surface that
- are used by only two boundary faces and
- make an angle with a cosine of more than 0.866025.

Removing 42322 straight edge points ...

Edge intersection testing:
    Number of edges             : 17074983
    Number of edges to retest   : 183548
    Number of intersected edges : 487033

Undo iteration 0
----------------
Checking faces in error :
    non-orthogonality > 65  degrees                        : 148
    faces with face pyramid volume < 1e-13                 : 0
    faces with face-decomposition tet quality < 1e-15      : 0
    faces with concavity > 80  degrees                     : 0
    faces with skewness > 4   (internal) or 20  (boundary) : 0
    faces with interpolation weights (0..1)  < 0.02        : 0
    faces with volume ratio of neighbour cells < 0.01      : 0
    faces with face twist < 0.02                           : 0
    faces on cells with determinant < 0.001                : 0
Detected 0 error faces on boundaries that have been merged. These will be restored to their original faces.

Detected 148 error faces in mesh. Restoring neighbours of faces in error.

Edge intersection testing:
    Number of edges             : 17074983
    Number of edges to retest   : 5840
    Number of intersected edges : 487168

Removing zero-sized patches:
    walls type wall at position 0
    enclosure type patch at position 7

Snapped mesh : cells:5535082  faces:17074983  points:6028752
Cells per refinement level:
    0	0
    1	0
    2	0
    3	3549503
    4	1445206
    5	443625
    6	96748
Writing mesh to time constant
Wrote mesh in = 93.2517 s.
Mesh snapped in = 2692.94 s.
Checking final mesh ...
Checking faces in error :
    non-orthogonality > 65  degrees                        : 22
    faces with face pyramid volume < 1e-13                 : 0
    faces with face-decomposition tet quality < 1e-15      : 0
    faces with concavity > 80  degrees                     : 0
    faces with skewness > 4   (internal) or 20  (boundary) : 0
    faces with interpolation weights (0..1)  < 0.02        : 0
    faces with volume ratio of neighbour cells < 0.01      : 0
    faces with face twist < 0.02                           : 0
    faces on cells with determinant < 0.001                : 0
Finished meshing with 22 illegal faces (concave, zero area or negative cell pyramid volume)
Finished meshing in = 25670 s.
End

Finalising parallel run
TACC:  Shutdown complete. Exiting. 
