TACC:  Starting up job 2975549 
TACC:  Starting parallel tasks... 
/*---------------------------------------------------------------------------*\
  =========                 |
  \\      /  F ield         | OpenFOAM: The Open Source CFD Toolbox
   \\    /   O peration     | Website:  https://openfoam.org
    \\  /    A nd           | Version:  12
     \\/     M anipulation  |
\*---------------------------------------------------------------------------*/
Build  : 12-6aa359dae696
Exec   : /home1/apps/intel24/impi21/OpenFOAM/OpenFOAM-12/platforms/linux64IcxDPInt32Opt/bin/snappyHexMesh -parallel -overwrite
Date   : Mar 07 2026
Time   : 04:46:07
Host   : "c314-053.ls6.tacc.utexas.edu"
PID    : 185217
I/O    : uncollated
Case   : /work/11170/roy/FRP-Beam-Cleaning
nProcs : 12
Slaves : 
11
(
"c314-053.ls6.tacc.utexas.edu.185218"
"c314-053.ls6.tacc.utexas.edu.185219"
"c314-053.ls6.tacc.utexas.edu.185220"
"c314-053.ls6.tacc.utexas.edu.185221"
"c314-053.ls6.tacc.utexas.edu.185222"
"c314-053.ls6.tacc.utexas.edu.185223"
"c314-053.ls6.tacc.utexas.edu.185224"
"c314-053.ls6.tacc.utexas.edu.185225"
"c314-053.ls6.tacc.utexas.edu.185226"
"c314-053.ls6.tacc.utexas.edu.185227"
"c314-053.ls6.tacc.utexas.edu.185228"
)

Pstream initialised with:
    floatTransfer      : false
    nProcsSimpleSum    : 0
    commsType          : nonBlocking
    polling iterations : 0
sigFpe : Enabling floating point exception trapping (FOAM_SIGFPE).
fileModificationChecking : Monitoring run-time modified files using timeStampMaster (fileModificationSkew 10)
allowSystemOperations : Allowing user-supplied system call operations

// * * * * * * * * * * * * * * * * * * * * * * * * * * * * * * * * * * * * * //
Create time

Create mesh for time = 0

Read mesh in = 0.982763 s
Reading "snappyHexMeshDict"


Overall mesh bounding box  : (-0.25 -3.74 -0.25) (0.25 0.5 0.25)
Relative tolerance         : 1e-06
Absolute matching distance : 4.29856e-06

beamWalls : using scale 0.001
beamFrontOpening : using scale 0.001
beamBackOpening : using scale 0.001
beamHoles : using scale 0.001
nozzle : using scale 0.001
nozzleInlet : using scale 0.001
Reading refinement surfaces...
Read refinement surfaces in = 0.059616 s

Reading refinement regions...
--> FOAM Warning : 
    From function void Foam::refinementRegions::setAndCheckLevels(const label, const dictionary &)
    in file refinementRegions/refinementRegions.C at line 71
    Shell beamWalls is not closed so testing for 'inside' may fail.
Refinement level 3 for all cells inside beamWalls
Refinement level according to distance to beamHoles
    level 5 for all cells within 0.002 metre.
    level 4 for all cells within 0.005 metre.
Refinement level according to distance to nozzle
    level 4 for all cells within 0.005 metre.
refinementRegions : Flipped orientation of surface beamWalls so point (0.0762 3.2401 0.0762) is outside.
Read refinement regions in = 0.000875 s

Reading features...
Read extendedFeatureEdgeMesh beam_walls.extendedFeatureEdgeMesh
    points      : 20
    edges       : 32
    boundingBox : (-25.4 -3240.1 -25.4) (25.4 0 25.4)
    point classification :
        convex feature points          :       12
        concave feature points         :        4
        mixed feature points           :        4
        other (non-feature) points     :        0
    edge classification :
        external (convex angle) edges  :       20
        internal (concave angle) edges :        8
        flat region edges              :        0
        open edges                     :        0
        multiply connected edges       :        4

Refinement level according to distance to "beam_walls.extendedFeatureEdgeMesh" (20 points, 32 edges).
    level 3 for all cells within 0 metre.
Read extendedFeatureEdgeMesh beam_holes.extendedFeatureEdgeMesh
    points      : 9720
    edges       : 10068
    boundingBox : (-1.74574 -3211.75 -25.4) (1.75 -28.2511 25.4)
    point classification :
        convex feature points          :        0
        concave feature points         :        0
        mixed feature points           :      180
        other (non-feature) points     :     9540
    edge classification :
        external (convex angle) edges  :     9540
        internal (concave angle) edges :        0
        flat region edges              :        0
        open edges                     :        0
        multiply connected edges       :      528

Refinement level according to distance to "beam_holes.extendedFeatureEdgeMesh" (9720 points, 10068 edges).
    level 5 for all cells within 0 metre.
Read extendedFeatureEdgeMesh nozzle.extendedFeatureEdgeMesh
    points      : 504
    edges       : 504
    boundingBox : (-10 -3000 -9.99689) (10 -2490 9.99689)
    point classification :
        convex feature points          :        0
        concave feature points         :        0
        mixed feature points           :        0
        other (non-feature) points     :      504
    edge classification :
        external (convex angle) edges  :      504
        internal (concave angle) edges :        0
        flat region edges              :        0
        open edges                     :        0
        multiply connected edges       :        0

Refinement level according to distance to "nozzle.extendedFeatureEdgeMesh" (504 points, 504 edges).
    level 4 for all cells within 0 metre.
Read extendedFeatureEdgeMesh nozzle_inlet.extendedFeatureEdgeMesh
    points      : 122
    edges       : 122
    boundingBox : (-4.24546 -2600.17 -4.24859) (4.24935 -2599.93 4.24859)
    point classification :
        convex feature points          :        0
        concave feature points         :        0
        mixed feature points           :        0
        other (non-feature) points     :      122
    edge classification :
        external (convex angle) edges  :      122
        internal (concave angle) edges :        0
        flat region edges              :        0
        open edges                     :        0
        multiply connected edges       :        0

Refinement level according to distance to "nozzle_inlet.extendedFeatureEdgeMesh" (122 points, 122 edges).
    level 5 for all cells within 0 metre.
Read extendedFeatureEdgeMesh beam_front_opening.extendedFeatureEdgeMesh
    points      : 8
    edges       : 12
    boundingBox : (-19.05 -0.1 -19.05) (19.05 4.22995e-15 19.05)
    point classification :
        convex feature points          :        8
        concave feature points         :        0
        mixed feature points           :        0
        other (non-feature) points     :        0
    edge classification :
        external (convex angle) edges  :       12
        internal (concave angle) edges :        0
        flat region edges              :        0
        open edges                     :        0
        multiply connected edges       :        0

Refinement level according to distance to "beam_front_opening.extendedFeatureEdgeMesh" (8 points, 12 edges).
    level 3 for all cells within 0 metre.
Read extendedFeatureEdgeMesh beam_back_opening.extendedFeatureEdgeMesh
    points      : 8
    edges       : 12
    boundingBox : (-19.05 -3240.1 -19.05) (19.05 -3240 19.05)
    point classification :
        convex feature points          :        8
        concave feature points         :        0
        mixed feature points           :        0
        other (non-feature) points     :        0
    edge classification :
        external (convex angle) edges  :       12
        internal (concave angle) edges :        0
        flat region edges              :        0
        open edges                     :        0
        multiply connected edges       :        0

Refinement level according to distance to "beam_back_opening.extendedFeatureEdgeMesh" (8 points, 12 edges).
    level 3 for all cells within 0 metre.
Read features in = 0.15834 s


Determining initial surface intersections
-----------------------------------------

Edge intersection testing:
    Number of edges             : 5144000
    Number of edges to retest   : 5144000
    Number of intersected edges : 9748
Calculated surface intersections in = 2.36734 s

Initial mesh : cells:1700000  faces:5144000  points:1744371
Cells per refinement level:
    0	1700000

Adding patches for surface regions
----------------------------------

Patch Type                Region                        
----- ----                ------                        
beamWalls:

1     wall                beamWalls                     

beamFrontOpening:

2     patch               beamFrontOpening              

beamBackOpening:

3     patch               beamBackOpening               

beamHoles:

4     patch               beamHoles                     

nozzle:

5     wall                nozzle                        

nozzleInlet:

6     patch               nozzleInlet                   

Added patches in = 0.608771 s

Selecting distributor scotch
Cell selection insidePoints: 1((0.2 0.4 0.2))

Refinement phase
----------------

Found point (0.2 0.4 0.2) in cell 111606 on processor 4

Feature refinement iteration 0
------------------------------

--> FOAM Warning : 
    From function Foam::scalar Foam::particle::trackToFace(const polyMesh &, const vector &, const scalar)
    in file particle/particle.C at line 606
    Particle #4 got stuck at (0.188812 -1.01618 0.188812)
Marked for refinement due to explicit features             : 1332 cells.
Determined cells to refine in = 18.2199 s
Selected for feature refinement : 1332 cells (out of 1700000)
Edge intersection testing:
    Number of edges             : 5179514
    Number of edges to retest   : 57561
    Number of intersected edges : 9784
Refined mesh in = 2.74154 s
After refinement feature refinement iteration 0 : cells:1709324  faces:5179514  points:1762240
Cells per refinement level:
    0	1698668
    1	10656
Balanced mesh in = 11.0144 s
After balancing feature refinement iteration 0 : cells:1709324  faces:5179514  points:1762240
Cells per refinement level:
    0	1698668
    1	10656

Feature refinement iteration 1
------------------------------

Marked for refinement due to explicit features             : 2491 cells.
Determined cells to refine in = 17.4888 s
Selected for feature refinement : 3777 cells (out of 1709324)
Edge intersection testing:
    Number of edges             : 5274269
    Number of edges to retest   : 145294
    Number of intersected edges : 9820
Refined mesh in = 2.52657 s
After refinement feature refinement iteration 1 : cells:1735763  faces:5274269  points:1805563
Cells per refinement level:
    0	1696507
    1	26328
    2	12928
Balanced mesh in = 12.3141 s
After balancing feature refinement iteration 1 : cells:1735763  faces:5274269  points:1805563
Cells per refinement level:
    0	1696507
    1	26328
    2	12928

Feature refinement iteration 2
------------------------------

Marked for refinement due to explicit features             : 2495 cells.
Determined cells to refine in = 20.455 s
Selected for feature refinement : 3375 cells (out of 1735763)
Edge intersection testing:
    Number of edges             : 5355383
    Number of edges to retest   : 159371
    Number of intersected edges : 9820
Refined mesh in = 2.64997 s
After refinement feature refinement iteration 2 : cells:1759388  faces:5355383  points:1840256
Cells per refinement level:
    0	1695541
    1	31812
    2	30715
    3	1320
Balanced mesh in = 11.9859 s
After balancing feature refinement iteration 2 : cells:1759388  faces:5355383  points:1840256
Cells per refinement level:
    0	1695541
    1	31812
    2	30715
    3	1320

Feature refinement iteration 3
------------------------------

Marked for refinement due to explicit features             : 1092 cells.
Determined cells to refine in = 19.171 s
Selected for feature refinement : 1707 cells (out of 1759388)
Edge intersection testing:
    Number of edges             : 5397095
    Number of edges to retest   : 82887
    Number of intersected edges : 9820
Refined mesh in = 2.74194 s
After refinement feature refinement iteration 3 : cells:1771337  faces:5397095  points:1858684
Cells per refinement level:
    0	1695064
    1	34756
    2	37333
    3	4184
Balanced mesh in = 12.3334 s
After balancing feature refinement iteration 3 : cells:1771337  faces:5397095  points:1858684
Cells per refinement level:
    0	1695064
    1	34756
    2	37333
    3	4184

Feature refinement iteration 4
------------------------------

Marked for refinement due to explicit features             : 780 cells.
Determined cells to refine in = 20.9376 s
Selected for feature refinement : 819 cells (out of 1771337)
Edge intersection testing:
    Number of edges             : 5417492
    Number of edges to retest   : 42781
    Number of intersected edges : 9856
Refined mesh in = 2.60414 s
After refinement feature refinement iteration 4 : cells:1777070  faces:5417492  points:1867934
Cells per refinement level:
    0	1694399
    1	39922
    2	38565
    3	4184
Balanced mesh in = 12.5949 s
After balancing feature refinement iteration 4 : cells:1777070  faces:5417492  points:1867934
Cells per refinement level:
    0	1694399
    1	39922
    2	38565
    3	4184

Feature refinement iteration 5
------------------------------

Marked for refinement due to explicit features             : 1184 cells.
Determined cells to refine in = 20.633 s
Selected for feature refinement : 1400 cells (out of 1777070)
Edge intersection testing:
    Number of edges             : 5452925
    Number of edges to retest   : 72688
    Number of intersected edges : 9962
Refined mesh in = 2.69846 s
After refinement feature refinement iteration 5 : cells:1786870  faces:5452925  points:1884384
Cells per refinement level:
    0	1693430
    1	47247
    2	41977
    3	4216
Balanced mesh in = 12.3483 s
After balancing feature refinement iteration 5 : cells:1786870  faces:5452925  points:1884384
Cells per refinement level:
    0	1693430
    1	47247
    2	41977
    3	4216

Feature refinement iteration 6
------------------------------

Marked for refinement due to explicit features             : 610 cells.
Determined cells to refine in = 20.6507 s
Selected for feature refinement : 1045 cells (out of 1786870)
Edge intersection testing:
    Number of edges             : 5478563
    Number of edges to retest   : 47645
    Number of intersected edges : 9962
Refined mesh in = 2.72767 s
After refinement feature refinement iteration 6 : cells:1794185  faces:5478563  points:1895716
Cells per refinement level:
    0	1693269
    1	47951
    2	46349
    3	6616
Balanced mesh in = 12.8863 s
After balancing feature refinement iteration 6 : cells:1794185  faces:5478563  points:1895716
Cells per refinement level:
    0	1693269
    1	47951
    2	46349
    3	6616

Feature refinement iteration 7
------------------------------

Marked for refinement due to explicit features             : 1566 cells.
Determined cells to refine in = 19.7154 s
Selected for feature refinement : 2433 cells (out of 1794185)
Edge intersection testing:
    Number of edges             : 5537774
    Number of edges to retest   : 119189
    Number of intersected edges : 9962
Refined mesh in = 2.93559 s
After refinement feature refinement iteration 7 : cells:1811216  faces:5537774  points:1921301
Cells per refinement level:
    0	1693067
    1	48196
    2	56457
    3	13496
Balanced mesh in = 13.4809 s
After balancing feature refinement iteration 7 : cells:1811216  faces:5537774  points:1921301
Cells per refinement level:
    0	1693067
    1	48196
    2	56457
    3	13496

Feature refinement iteration 8
------------------------------

Marked for refinement due to explicit features             : 3829 cells.
Determined cells to refine in = 20.3449 s
Selected for feature refinement : 5855 cells (out of 1811216)
Edge intersection testing:
    Number of edges             : 5681231
    Number of edges to retest   : 263894
    Number of intersected edges : 9998
Refined mesh in = 3.13043 s
After refinement feature refinement iteration 8 : cells:1852201  faces:5681231  points:1984697
Cells per refinement level:
    0	1692283
    1	51996
    2	73634
    3	34288
Balanced mesh in = 13.7118 s
After balancing feature refinement iteration 8 : cells:1852201  faces:5681231  points:1984697
Cells per refinement level:
    0	1692283
    1	51996
    2	73634
    3	34288

Feature refinement iteration 9
------------------------------

Marked for refinement due to explicit features             : 1606 cells.
Determined cells to refine in = 18.6904 s
Selected for feature refinement : 2073 cells (out of 1852201)
Edge intersection testing:
    Number of edges             : 5731976
    Number of edges to retest   : 106107
    Number of intersected edges : 10034
Refined mesh in = 2.90476 s
After refinement feature refinement iteration 9 : cells:1866712  faces:5731976  points:2007053
Cells per refinement level:
    0	1691675
    1	55665
    2	82924
    3	36448
Balanced mesh in = 14.1801 s
After balancing feature refinement iteration 9 : cells:1866712  faces:5731976  points:2007053
Cells per refinement level:
    0	1691675
    1	55665
    2	82924
    3	36448

Feature refinement iteration 10
------------------------------

Marked for refinement due to explicit features             : 225 cells.
Determined cells to refine in = 22.7918 s
Selected for feature refinement : 324 cells (out of 1866712)
Edge intersection testing:
    Number of edges             : 5740031
    Number of edges to retest   : 15914
    Number of intersected edges : 10034
Refined mesh in = 2.72593 s
After refinement feature refinement iteration 10 : cells:1868980  faces:5740031  points:2010700
Cells per refinement level:
    0	1691485
    1	57051
    2	83996
    3	36448
Balanced mesh in = 13.7506 s
After balancing feature refinement iteration 10 : cells:1868980  faces:5740031  points:2010700
Cells per refinement level:
    0	1691485
    1	57051
    2	83996
    3	36448

Feature refinement iteration 11
------------------------------

Marked for refinement due to explicit features             : 179 cells.
Determined cells to refine in = 22.4359 s
Selected for feature refinement : 333 cells (out of 1868980)
Edge intersection testing:
    Number of edges             : 5748539
    Number of edges to retest   : 12787
    Number of intersected edges : 10034
Refined mesh in = 2.89225 s
After refinement feature refinement iteration 11 : cells:1871311  faces:5748539  points:2014674
Cells per refinement level:
    0	1691314
    1	58257
    2	85292
    3	36448
Balanced mesh in = 13.8668 s
After balancing feature refinement iteration 11 : cells:1871311  faces:5748539  points:2014674
Cells per refinement level:
    0	1691314
    1	58257
    2	85292
    3	36448

Feature refinement iteration 12
------------------------------

Marked for refinement due to explicit features             : 2696 cells.
Determined cells to refine in = 22.4277 s
Selected for feature refinement : 4442 cells (out of 1871311)
Edge intersection testing:
    Number of edges             : 5858084
    Number of edges to retest   : 206576
    Number of intersected edges : 10138
Refined mesh in = 2.82949 s
After refinement feature refinement iteration 12 : cells:1902405  faces:5858084  points:2063489
Cells per refinement level:
    0	1690812
    1	60608
    2	96337
    3	54648
Balanced mesh in = 13.785 s
After balancing feature refinement iteration 12 : cells:1902405  faces:5858084  points:2063489
Cells per refinement level:
    0	1690812
    1	60608
    2	96337
    3	54648

Feature refinement iteration 13
------------------------------

Marked for refinement due to explicit features             : 1158 cells.
Determined cells to refine in = 23.5105 s
Selected for feature refinement : 1671 cells (out of 1902405)
Edge intersection testing:
    Number of edges             : 5898662
    Number of edges to retest   : 83755
    Number of intersected edges : 10174
Refined mesh in = 2.88189 s
After refinement feature refinement iteration 13 : cells:1914102  faces:5898662  points:2080978
Cells per refinement level:
    0	1690307
    1	63872
    2	102155
    3	57768
Balanced mesh in = 14.1678 s
After balancing feature refinement iteration 13 : cells:1914102  faces:5898662  points:2080978
Cells per refinement level:
    0	1690307
    1	63872
    2	102155
    3	57768

Feature refinement iteration 14
------------------------------

Marked for refinement due to explicit features             : 971 cells.
Determined cells to refine in = 20.5076 s
Selected for feature refinement : 1815 cells (out of 1914102)
Edge intersection testing:
    Number of edges             : 5944154
    Number of edges to retest   : 78433
    Number of intersected edges : 10174
Refined mesh in = 2.99067 s
After refinement feature refinement iteration 14 : cells:1926807  faces:5944154  points:2101876
Cells per refinement level:
    0	1690014
    1	65486
    2	107203
    3	64104
Balanced mesh in = 14.5289 s
After balancing feature refinement iteration 14 : cells:1926807  faces:5944154  points:2101876
Cells per refinement level:
    0	1690014
    1	65486
    2	107203
    3	64104

Feature refinement iteration 15
------------------------------

Marked for refinement due to explicit features             : 1337 cells.
Determined cells to refine in = 23.8881 s
Selected for feature refinement : 2033 cells (out of 1926807)
Edge intersection testing:
    Number of edges             : 5992478
    Number of edges to retest   : 103295
    Number of intersected edges : 10174
Refined mesh in = 3.03932 s
After refinement feature refinement iteration 15 : cells:1941038  faces:5992478  points:2122030
Cells per refinement level:
    0	1689772
    1	66554
    2	113224
    3	71488
Balanced mesh in = 14.5953 s
After balancing feature refinement iteration 15 : cells:1941038  faces:5992478  points:2122030
Cells per refinement level:
    0	1689772
    1	66554
    2	113224
    3	71488

Feature refinement iteration 16
------------------------------

--> FOAM Warning : 
    From function Foam::scalar Foam::particle::trackToFace(const polyMesh &, const vector &, const scalar)
    in file particle/particle.C at line 606
    Particle #16 got stuck at (0.043501 -1.49073 0.043501)
Marked for refinement due to explicit features             : 1356 cells.
Determined cells to refine in = 20.3043 s
Selected for feature refinement : 2177 cells (out of 1941038)
Edge intersection testing:
    Number of edges             : 6046145
    Number of edges to retest   : 99150
    Number of intersected edges : 10174
Refined mesh in = 2.97025 s
After refinement feature refinement iteration 16 : cells:1956277  faces:6046145  points:2145895
Cells per refinement level:
    0	1689339
    1	69011
    2	120543
    3	77384
Balanced mesh in = 14.7298 s
After balancing feature refinement iteration 16 : cells:1956277  faces:6046145  points:2145895
Cells per refinement level:
    0	1689339
    1	69011
    2	120543
    3	77384

Feature refinement iteration 17
------------------------------

Marked for refinement due to explicit features             : 1746 cells.
Determined cells to refine in = 24.9921 s
Selected for feature refinement : 2333 cells (out of 1956277)
Edge intersection testing:
    Number of edges             : 6102152
    Number of edges to retest   : 124605
    Number of intersected edges : 10246
Refined mesh in = 3.10465 s
After refinement feature refinement iteration 17 : cells:1972608  faces:6102152  points:2169685
Cells per refinement level:
    0	1688729
    1	72995
    2	126884
    3	84000
Balanced mesh in = 14.732 s
After balancing feature refinement iteration 17 : cells:1972608  faces:6102152  points:2169685
Cells per refinement level:
    0	1688729
    1	72995
    2	126884
    3	84000

Feature refinement iteration 18
------------------------------

Marked for refinement due to explicit features             : 1948 cells.
Determined cells to refine in = 23.6153 s
Selected for feature refinement : 2831 cells (out of 1972608)
Edge intersection testing:
    Number of edges             : 6172544
    Number of edges to retest   : 128985
    Number of intersected edges : 10318
Refined mesh in = 3.20715 s
After refinement feature refinement iteration 18 : cells:1992425  faces:6172544  points:2201737
Cells per refinement level:
    0	1688112
    1	76787
    2	134966
    3	92560
Balanced mesh in = 15.3029 s
After balancing feature refinement iteration 18 : cells:1992425  faces:6172544  points:2201737
Cells per refinement level:
    0	1688112
    1	76787
    2	134966
    3	92560

Feature refinement iteration 19
------------------------------

Marked for refinement due to explicit features             : 638 cells.
Determined cells to refine in = 24.407 s
Selected for feature refinement : 809 cells (out of 1992425)
Edge intersection testing:
    Number of edges             : 6192254
    Number of edges to retest   : 43365
    Number of intersected edges : 10419
Refined mesh in = 3.01566 s
After refinement feature refinement iteration 19 : cells:1998088  faces:6192254  points:2210313
Cells per refinement level:
    0	1687921
    1	78115
    2	136148
    3	95904
Balanced mesh in = 15.0802 s
After balancing feature refinement iteration 19 : cells:1998088  faces:6192254  points:2210313
Cells per refinement level:
    0	1687921
    1	78115
    2	136148
    3	95904

Feature refinement iteration 20
------------------------------

Marked for refinement due to explicit features             : 890 cells.
Determined cells to refine in = 29.0431 s
Selected for feature refinement : 1344 cells (out of 1998088)
Edge intersection testing:
    Number of edges             : 6225014
    Number of edges to retest   : 67397
    Number of intersected edges : 10419
Refined mesh in = 3.1975 s
After refinement feature refinement iteration 20 : cells:2007496  faces:6225014  points:2224639
Cells per refinement level:
    0	1687701
    1	79071
    2	142260
    3	98464
Balanced mesh in = 14.8105 s
After balancing feature refinement iteration 20 : cells:2007496  faces:6225014  points:2224639
Cells per refinement level:
    0	1687701
    1	79071
    2	142260
    3	98464

Feature refinement iteration 21
------------------------------

Marked for refinement due to explicit features             : 4291 cells.
Determined cells to refine in = 25.1329 s
Selected for feature refinement : 6018 cells (out of 2007496)
Edge intersection testing:
    Number of edges             : 6369086
    Number of edges to retest   : 296547
    Number of intersected edges : 10455
Refined mesh in = 3.57219 s
After refinement feature refinement iteration 21 : cells:2049622  faces:6369086  points:2286061
Cells per refinement level:
    0	1687287
    1	80713
    2	151686
    3	129936
Balanced mesh in = 15.7137 s
After balancing feature refinement iteration 21 : cells:2049622  faces:6369086  points:2286061
Cells per refinement level:
    0	1687287
    1	80713
    2	151686
    3	129936

Feature refinement iteration 22
------------------------------

Marked for refinement due to explicit features             : 2034 cells.
Determined cells to refine in = 27.2528 s
Selected for feature refinement : 2955 cells (out of 2049622)
Edge intersection testing:
    Number of edges             : 6440288
    Number of edges to retest   : 151789
    Number of intersected edges : 10559
Refined mesh in = 3.36759 s
After refinement feature refinement iteration 22 : cells:2070307  faces:6440288  points:2316218
Cells per refinement level:
    0	1686916
    1	82718
    2	157769
    3	142904
Balanced mesh in = 16.4155 s
After balancing feature refinement iteration 22 : cells:2070307  faces:6440288  points:2316218
Cells per refinement level:
    0	1686916
    1	82718
    2	157769
    3	142904

Feature refinement iteration 23
------------------------------

Marked for refinement due to explicit features             : 938 cells.
Determined cells to refine in = 24.8848 s
Selected for feature refinement : 1209 cells (out of 2070307)
Edge intersection testing:
    Number of edges             : 6468518
    Number of edges to retest   : 70721
    Number of intersected edges : 10559
Refined mesh in = 3.22312 s
After refinement feature refinement iteration 23 : cells:2078770  faces:6468518  points:2327779
Cells per refinement level:
    0	1686916
    1	82413
    2	159305
    3	150136
Balanced mesh in = 15.9963 s
After balancing feature refinement iteration 23 : cells:2078770  faces:6468518  points:2327779
Cells per refinement level:
    0	1686916
    1	82413
    2	159305
    3	150136

Feature refinement iteration 24
------------------------------

Marked for refinement due to explicit features             : 1159 cells.
Determined cells to refine in = 25.6482 s
Selected for feature refinement : 1688 cells (out of 2078770)
Edge intersection testing:
    Number of edges             : 6510902
    Number of edges to retest   : 79576
    Number of intersected edges : 10744
Refined mesh in = 3.2197 s
After refinement feature refinement iteration 24 : cells:2090586  faces:6510902  points:2347293
Cells per refinement level:
    0	1686344
    1	86340
    2	164030
    3	153872
Balanced mesh in = 15.5281 s
After balancing feature refinement iteration 24 : cells:2090586  faces:6510902  points:2347293
Cells per refinement level:
    0	1686344
    1	86340
    2	164030
    3	153872

Feature refinement iteration 25
------------------------------

Marked for refinement due to explicit features             : 567 cells.
Determined cells to refine in = 25.3932 s
Selected for feature refinement : 762 cells (out of 2090586)
Edge intersection testing:
    Number of edges             : 6529127
    Number of edges to retest   : 40241
    Number of intersected edges : 10744
Refined mesh in = 3.13652 s
After refinement feature refinement iteration 25 : cells:2095920  faces:6529127  points:2354904
Cells per refinement level:
    0	1686258
    1	86788
    2	165514
    3	157360
Balanced mesh in = 15.8138 s
After balancing feature refinement iteration 25 : cells:2095920  faces:6529127  points:2354904
Cells per refinement level:
    0	1686258
    1	86788
    2	165514
    3	157360

Feature refinement iteration 26
------------------------------

Marked for refinement due to explicit features             : 2348 cells.
Determined cells to refine in = 27.6851 s
Selected for feature refinement : 2863 cells (out of 2095920)
Edge intersection testing:
    Number of edges             : 6596543
    Number of edges to retest   : 165817
    Number of intersected edges : 10816
Refined mesh in = 3.3817 s
After refinement feature refinement iteration 26 : cells:2115961  faces:6596543  points:2382720
Cells per refinement level:
    0	1685762
    1	89881
    2	171022
    3	169296
Balanced mesh in = 16.5678 s
After balancing feature refinement iteration 26 : cells:2115961  faces:6596543  points:2382720
Cells per refinement level:
    0	1685762
    1	89881
    2	171022
    3	169296

Feature refinement iteration 27
------------------------------

Marked for refinement due to explicit features             : 733 cells.
Determined cells to refine in = 30.5039 s
Selected for feature refinement : 950 cells (out of 2115961)
Edge intersection testing:
    Number of edges             : 6619316
    Number of edges to retest   : 53315
    Number of intersected edges : 10816
Refined mesh in = 3.34163 s
After refinement feature refinement iteration 27 : cells:2122611  faces:6619316  points:2392339
Cells per refinement level:
    0	1685743
    1	89533
    2	174591
    3	172744
Balanced mesh in = 16.3772 s
After balancing feature refinement iteration 27 : cells:2122611  faces:6619316  points:2392339
Cells per refinement level:
    0	1685743
    1	89533
    2	174591
    3	172744

Feature refinement iteration 28
------------------------------

Marked for refinement due to explicit features             : 1799 cells.
Determined cells to refine in = 28.7892 s
Selected for feature refinement : 2841 cells (out of 2122611)
Edge intersection testing:
    Number of edges             : 6691055
    Number of edges to retest   : 127937
    Number of intersected edges : 10956
Refined mesh in = 3.29504 s
After refinement feature refinement iteration 28 : cells:2142498  faces:6691055  points:2425747
Cells per refinement level:
    0	1684940
    1	94829
    2	182705
    3	180024
Balanced mesh in = 16.5634 s
After balancing feature refinement iteration 28 : cells:2142498  faces:6691055  points:2425747
Cells per refinement level:
    0	1684940
    1	94829
    2	182705
    3	180024

Feature refinement iteration 29
------------------------------

Marked for refinement due to explicit features             : 1405 cells.
Determined cells to refine in = 29.2156 s
Selected for feature refinement : 1853 cells (out of 2142498)
Edge intersection testing:
    Number of edges             : 6733136
    Number of edges to retest   : 110479
    Number of intersected edges : 10956
Refined mesh in = 3.49291 s
After refinement feature refinement iteration 29 : cells:2155469  faces:6733136  points:2441496
Cells per refinement level:
    0	1684940
    1	94381
    2	184884
    3	191264
Balanced mesh in = 16.5193 s
After balancing feature refinement iteration 29 : cells:2155469  faces:6733136  points:2441496
Cells per refinement level:
    0	1684940
    1	94381
    2	184884
    3	191264

Feature refinement iteration 30
------------------------------

Marked for refinement due to explicit features             : 843 cells.
Determined cells to refine in = 26.253 s
Selected for feature refinement : 1001 cells (out of 2155469)
Edge intersection testing:
    Number of edges             : 6756890
    Number of edges to retest   : 57693
    Number of intersected edges : 10992
Refined mesh in = 3.32644 s
After refinement feature refinement iteration 30 : cells:2162476  faces:6756890  points:2451354
Cells per refinement level:
    0	1684685
    1	96218
    2	185965
    3	195608
Balanced mesh in = 16.5512 s
After balancing feature refinement iteration 30 : cells:2162476  faces:6756890  points:2451354
Cells per refinement level:
    0	1684685
    1	96218
    2	185965
    3	195608

Feature refinement iteration 31
------------------------------

Marked for refinement due to explicit features             : 1152 cells.
Determined cells to refine in = 29.8714 s
Selected for feature refinement : 1855 cells (out of 2162476)
Edge intersection testing:
    Number of edges             : 6803207
    Number of edges to retest   : 84923
    Number of intersected edges : 11096
Refined mesh in = 3.39964 s
After refinement feature refinement iteration 31 : cells:2175461  faces:6803207  points:2472445
Cells per refinement level:
    0	1684439
    1	97260
    2	192690
    3	201072
Balanced mesh in = 16.5507 s
After balancing feature refinement iteration 31 : cells:2175461  faces:6803207  points:2472445
Cells per refinement level:
    0	1684439
    1	97260
    2	192690
    3	201072

Feature refinement iteration 32
------------------------------

Marked for refinement due to explicit features             : 1433 cells.
Determined cells to refine in = 31.1012 s
Selected for feature refinement : 1897 cells (out of 2175461)
Edge intersection testing:
    Number of edges             : 6848192
    Number of edges to retest   : 106009
    Number of intersected edges : 11236
Refined mesh in = 3.42346 s
After refinement feature refinement iteration 32 : cells:2188740  faces:6848192  points:2491202
Cells per refinement level:
    0	1684059
    1	99664
    2	196897
    3	208120
Balanced mesh in = 17.8243 s
After balancing feature refinement iteration 32 : cells:2188740  faces:6848192  points:2491202
Cells per refinement level:
    0	1684059
    1	99664
    2	196897
    3	208120

Feature refinement iteration 33
------------------------------

Marked for refinement due to explicit features             : 1486 cells.
Determined cells to refine in = 25.9371 s
Selected for feature refinement : 1992 cells (out of 2188740)
Edge intersection testing:
    Number of edges             : 6896600
    Number of edges to retest   : 109374
    Number of intersected edges : 11272
Refined mesh in = 3.54885 s
After refinement feature refinement iteration 33 : cells:2202684  faces:6896600  points:2512301
Cells per refinement level:
    0	1683740
    1	101443
    2	202181
    3	215320
Balanced mesh in = 16.728 s
After balancing feature refinement iteration 33 : cells:2202684  faces:6896600  points:2512301
Cells per refinement level:
    0	1683740
    1	101443
    2	202181
    3	215320

Feature refinement iteration 34
------------------------------

Marked for refinement due to explicit features             : 598 cells.
Determined cells to refine in = 30.4429 s
Selected for feature refinement : 636 cells (out of 2202684)
Edge intersection testing:
    Number of edges             : 6911522
    Number of edges to retest   : 37753
    Number of intersected edges : 11332
Refined mesh in = 3.33703 s
After refinement feature refinement iteration 34 : cells:2207136  faces:6911522  points:2518374
Cells per refinement level:
    0	1683504
    1	103184
    2	203104
    3	217344
Balanced mesh in = 16.7246 s
After balancing feature refinement iteration 34 : cells:2207136  faces:6911522  points:2518374
Cells per refinement level:
    0	1683504
    1	103184
    2	203104
    3	217344

Feature refinement iteration 35
------------------------------

Marked for refinement due to explicit features             : 121 cells.
Determined cells to refine in = 29.7448 s
Selected for feature refinement : 140 cells (out of 2207136)
Edge intersection testing:
    Number of edges             : 6914747
    Number of edges to retest   : 9152
    Number of intersected edges : 11332
Refined mesh in = 3.40917 s
After refinement feature refinement iteration 35 : cells:2208116  faces:6914747  points:2519632
Cells per refinement level:
    0	1683481
    1	103319
    2	203428
    3	217888
Balanced mesh in = 17.0237 s
After balancing feature refinement iteration 35 : cells:2208116  faces:6914747  points:2519632
Cells per refinement level:
    0	1683481
    1	103319
    2	203428
    3	217888

Feature refinement iteration 36
------------------------------

Marked for refinement due to explicit features             : 302 cells.
Determined cells to refine in = 30.0045 s
Selected for feature refinement : 454 cells (out of 2208116)
Edge intersection testing:
    Number of edges             : 6925091
    Number of edges to retest   : 25950
    Number of intersected edges : 11332
Refined mesh in = 3.34656 s
After refinement feature refinement iteration 36 : cells:2211294  faces:6925091  points:2523560
Cells per refinement level:
    0	1683465
    1	103311
    2	204214
    3	220304
Balanced mesh in = 16.8696 s
After balancing feature refinement iteration 36 : cells:2211294  faces:6925091  points:2523560
Cells per refinement level:
    0	1683465
    1	103311
    2	204214
    3	220304

Feature refinement iteration 37
------------------------------

Marked for refinement due to explicit features             : 574 cells.
Determined cells to refine in = 26.9887 s
Selected for feature refinement : 686 cells (out of 2211294)
Edge intersection testing:
    Number of edges             : 6941207
    Number of edges to retest   : 42085
    Number of intersected edges : 11368
Refined mesh in = 3.30289 s
After refinement feature refinement iteration 37 : cells:2216096  faces:6941207  points:2530097
Cells per refinement level:
    0	1683342
    1	104200
    2	204506
    3	224048
Balanced mesh in = 17.7475 s
After balancing feature refinement iteration 37 : cells:2216096  faces:6941207  points:2530097
Cells per refinement level:
    0	1683342
    1	104200
    2	204506
    3	224048

Feature refinement iteration 38
------------------------------

Marked for refinement due to explicit features             : 643 cells.
Determined cells to refine in = 25.5649 s
Selected for feature refinement : 697 cells (out of 2216096)
Edge intersection testing:
    Number of edges             : 6956495
    Number of edges to retest   : 45406
    Number of intersected edges : 11368
Refined mesh in = 3.31264 s
After refinement feature refinement iteration 38 : cells:2220975  faces:6956495  points:2535237
Cells per refinement level:
    0	1683342
    1	104146
    2	204295
    3	229192
Balanced mesh in = 17.7202 s
After balancing feature refinement iteration 38 : cells:2220975  faces:6956495  points:2535237
Cells per refinement level:
    0	1683342
    1	104146
    2	204295
    3	229192

Feature refinement iteration 39
------------------------------

Marked for refinement due to explicit features             : 933 cells.
Determined cells to refine in = 30.0988 s
Selected for feature refinement : 1288 cells (out of 2220975)
Edge intersection testing:
    Number of edges             : 6987518
    Number of edges to retest   : 67723
    Number of intersected edges : 11410
Refined mesh in = 3.41161 s
After refinement feature refinement iteration 39 : cells:2229991  faces:6987518  points:2548540
Cells per refinement level:
    0	1683136
    1	105164
    2	208883
    3	232808
Balanced mesh in = 17.3843 s
After balancing feature refinement iteration 39 : cells:2229991  faces:6987518  points:2548540
Cells per refinement level:
    0	1683136
    1	105164
    2	208883
    3	232808

Feature refinement iteration 40
------------------------------

Marked for refinement due to explicit features             : 804 cells.
Determined cells to refine in = 26.7312 s
Selected for feature refinement : 1206 cells (out of 2229991)
Edge intersection testing:
    Number of edges             : 7016132
    Number of edges to retest   : 63506
    Number of intersected edges : 11410
Refined mesh in = 3.49064 s
After refinement feature refinement iteration 40 : cells:2238433  faces:7016132  points:2560658
Cells per refinement level:
    0	1683136
    1	104666
    2	212159
    3	238472
Balanced mesh in = 17.0256 s
After balancing feature refinement iteration 40 : cells:2238433  faces:7016132  points:2560658
Cells per refinement level:
    0	1683136
    1	104666
    2	212159
    3	238472

Feature refinement iteration 41
------------------------------

Marked for refinement due to explicit features             : 512 cells.
Determined cells to refine in = 26.7006 s
Selected for feature refinement : 700 cells (out of 2238433)
Edge intersection testing:
    Number of edges             : 7033865
    Number of edges to retest   : 33854
    Number of intersected edges : 11452
Refined mesh in = 3.52355 s
After refinement feature refinement iteration 41 : cells:2243333  faces:7033865  points:2569053
Cells per refinement level:
    0	1682937
    1	106086
    2	213206
    3	241104
Balanced mesh in = 17.5518 s
After balancing feature refinement iteration 41 : cells:2243333  faces:7033865  points:2569053
Cells per refinement level:
    0	1682937
    1	106086
    2	213206
    3	241104

Feature refinement iteration 42
------------------------------

Marked for refinement due to explicit features             : 393 cells.
Determined cells to refine in = 31.6647 s
Selected for feature refinement : 509 cells (out of 2243333)
Edge intersection testing:
    Number of edges             : 7046270
    Number of edges to retest   : 28983
    Number of intersected edges : 11452
Refined mesh in = 3.50973 s
After refinement feature refinement iteration 42 : cells:2246896  faces:7046270  points:2574516
Cells per refinement level:
    0	1682890
    1	106353
    2	213725
    3	243928
Balanced mesh in = 17.4155 s
After balancing feature refinement iteration 42 : cells:2246896  faces:7046270  points:2574516
Cells per refinement level:
    0	1682890
    1	106353
    2	213725
    3	243928

Feature refinement iteration 43
------------------------------

Marked for refinement due to explicit features             : 744 cells.
Determined cells to refine in = 29.7206 s
Selected for feature refinement : 898 cells (out of 2246896)
Edge intersection testing:
    Number of edges             : 7068167
    Number of edges to retest   : 49075
    Number of intersected edges : 11488
Refined mesh in = 3.41876 s
After refinement feature refinement iteration 43 : cells:2253182  faces:7068167  points:2584052
Cells per refinement level:
    0	1682745
    1	107347
    2	214466
    3	248624
Balanced mesh in = 17.5976 s
After balancing feature refinement iteration 43 : cells:2253182  faces:7068167  points:2584052
Cells per refinement level:
    0	1682745
    1	107347
    2	214466
    3	248624

Feature refinement iteration 44
------------------------------

Marked for refinement due to explicit features             : 603 cells.
Determined cells to refine in = 24.2194 s
Selected for feature refinement : 828 cells (out of 2253182)
Edge intersection testing:
    Number of edges             : 7088420
    Number of edges to retest   : 43222
    Number of intersected edges : 11488
Refined mesh in = 3.44424 s
After refinement feature refinement iteration 44 : cells:2258978  faces:7088420  points:2592885
Cells per refinement level:
    0	1682696
    1	107529
    2	215577
    3	253176
Balanced mesh in = 17.2739 s
After balancing feature refinement iteration 44 : cells:2258978  faces:7088420  points:2592885
Cells per refinement level:
    0	1682696
    1	107529
    2	215577
    3	253176

Feature refinement iteration 45
------------------------------

Marked for refinement due to explicit features             : 1329 cells.
Determined cells to refine in = 30.1807 s
Selected for feature refinement : 1889 cells (out of 2258978)
Edge intersection testing:
    Number of edges             : 7134908
    Number of edges to retest   : 95710
    Number of intersected edges : 11586
Refined mesh in = 3.50572 s
After refinement feature refinement iteration 45 : cells:2272201  faces:7134908  points:2613478
Cells per refinement level:
    0	1682355
    1	109626
    2	219708
    3	260512
Balanced mesh in = 17.4947 s
After balancing feature refinement iteration 45 : cells:2272201  faces:7134908  points:2613478
Cells per refinement level:
    0	1682355
    1	109626
    2	219708
    3	260512

Feature refinement iteration 46
------------------------------

Marked for refinement due to explicit features             : 1038 cells.
Determined cells to refine in = 29.5814 s
Selected for feature refinement : 1510 cells (out of 2272201)
Edge intersection testing:
    Number of edges             : 7172966
    Number of edges to retest   : 71716
    Number of intersected edges : 11802
Refined mesh in = 3.42566 s
After refinement feature refinement iteration 46 : cells:2282771  faces:7172966  points:2631131
Cells per refinement level:
    0	1681894
    1	112619
    2	224914
    3	263344
Balanced mesh in = 17.8047 s
After balancing feature refinement iteration 46 : cells:2282771  faces:7172966  points:2631131
Cells per refinement level:
    0	1681894
    1	112619
    2	224914
    3	263344

Feature refinement iteration 47
------------------------------

Marked for refinement due to explicit features             : 676 cells.
Determined cells to refine in = 30.8318 s
Selected for feature refinement : 859 cells (out of 2282771)
Edge intersection testing:
    Number of edges             : 7193150
    Number of edges to retest   : 50391
    Number of intersected edges : 11885
Refined mesh in = 3.53212 s
After refinement feature refinement iteration 47 : cells:2288784  faces:7193150  points:2639445
Cells per refinement level:
    0	1681712
    1	113835
    2	226397
    3	266840
Balanced mesh in = 17.3395 s
After balancing feature refinement iteration 47 : cells:2288784  faces:7193150  points:2639445
Cells per refinement level:
    0	1681712
    1	113835
    2	226397
    3	266840

Feature refinement iteration 48
------------------------------

Marked for refinement due to explicit features             : 580 cells.
Determined cells to refine in = 28.4261 s
Selected for feature refinement : 871 cells (out of 2288784)
Edge intersection testing:
    Number of edges             : 7214273
    Number of edges to retest   : 44746
    Number of intersected edges : 11921
Refined mesh in = 3.49458 s
After refinement feature refinement iteration 48 : cells:2294881  faces:7214273  points:2648689
Cells per refinement level:
    0	1681378
    1	116115
    2	229388
    3	268000
Balanced mesh in = 17.4132 s
After balancing feature refinement iteration 48 : cells:2294881  faces:7214273  points:2648689
Cells per refinement level:
    0	1681378
    1	116115
    2	229388
    3	268000

Feature refinement iteration 49
------------------------------

Marked for refinement due to explicit features             : 0 cells.
Determined cells to refine in = 29.3051 s
Selected for feature refinement : 0 cells (out of 2294881)
Stopping refining since too few cells selected.


Surface refinement iteration 0
------------------------------

Marked for refinement due to surface intersection          : 16500 cells.
Marked for refinement due to curvature/regions             : 0 cells.
Determined cells to refine in = 0.116442 s
Selected for refinement : 16546 cells (out of 2294881)
Edge intersection testing:
    Number of edges             : 7583540
    Number of edges to retest   : 463430
    Number of intersected edges : 48756
Refined mesh in = 4.61055 s
After refinement surface refinement iteration 0 : cells:2410703  faces:7583540  points:2786651
Cells per refinement level:
    0	1667783
    1	222536
    2	247488
    3	272896
Balanced mesh in = 19.2531 s
After balancing surface refinement iteration 0 : cells:2410703  faces:7583540  points:2786651
Cells per refinement level:
    0	1667783
    1	222536
    2	247488
    3	272896

Surface refinement iteration 1
------------------------------

Marked for refinement due to surface intersection          : 83540 cells.
Marked for refinement due to curvature/regions             : 204 cells.
Determined cells to refine in = 0.440073 s
Selected for refinement : 85591 cells (out of 2410703)
Edge intersection testing:
    Number of edges             : 9469724
    Number of edges to retest   : 2323587
    Number of intersected edges : 184066
Refined mesh in = 13.4187 s
After refinement surface refinement iteration 1 : cells:3009840  faces:9469724  points:3474556
Cells per refinement level:
    0	1667209
    1	154049
    2	820706
    3	363684
    4	4192
Balanced mesh in = 27.5083 s
After balancing surface refinement iteration 1 : cells:3009840  faces:9469724  points:3474556
Cells per refinement level:
    0	1667209
    1	154049
    2	820706
    3	363684
    4	4192

Surface refinement iteration 2
------------------------------

Marked for refinement due to surface intersection          : 291638 cells.
Marked for refinement due to curvature/regions             : 1593 cells.
Determined cells to refine in = 0.684113 s
Selected for refinement : 310241 cells (out of 3009840)
Edge intersection testing:
    Number of edges             : 16416467
    Number of edges to retest   : 8866752
    Number of intersected edges : 658056
Refined mesh in = 28.9914 s
After refinement surface refinement iteration 2 : cells:5181527  faces:16416467  points:6077054
Cells per refinement level:
    0	1664760
    1	159202
    2	647994
    3	2664539
    4	43496
    5	1536
Balanced mesh in = 50.7222 s
After balancing surface refinement iteration 2 : cells:5181527  faces:16416467  points:6077054
Cells per refinement level:
    0	1664760
    1	159202
    2	647994
    3	2664539
    4	43496
    5	1536

Surface refinement iteration 3
------------------------------

Marked for refinement due to surface intersection          : 44432 cells.
Marked for refinement due to curvature/regions             : 22404 cells.
Determined cells to refine in = 2.2385 s
Selected for refinement : 70360 cells (out of 5181527)
Edge intersection testing:
    Number of edges             : 18030344
    Number of edges to retest   : 2270358
    Number of intersected edges : 834084
Refined mesh in = 15.289 s
After refinement surface refinement iteration 3 : cells:5674047  faces:18030344  points:6713815
Cells per refinement level:
    0	1664492
    1	160986
    2	645386
    3	2647863
    4	524472
    5	30848
Balanced mesh in = 49.2592 s
After balancing surface refinement iteration 3 : cells:5674047  faces:18030344  points:6713815
Cells per refinement level:
    0	1664492
    1	160986
    2	645386
    3	2647863
    4	524472
    5	30848

Surface refinement iteration 4
------------------------------

Marked for refinement due to surface intersection          : 93336 cells.
Marked for refinement due to curvature/regions             : 23182 cells.
Determined cells to refine in = 3.4948 s
Selected for refinement : 124568 cells (out of 5674047)
Edge intersection testing:
    Number of edges             : 20866775
    Number of edges to retest   : 3718554
    Number of intersected edges : 1122130
Refined mesh in = 32.282 s
After refinement surface refinement iteration 4 : cells:6546023  faces:20866775  points:7816869
Cells per refinement level:
    0	1664458
    1	161174
    2	645034
    3	2642785
    4	524312
    5	877572
    6	30688
Balanced mesh in = 53.9437 s
After balancing surface refinement iteration 4 : cells:6546023  faces:20866775  points:7816869
Cells per refinement level:
    0	1664458
    1	161174
    2	645034
    3	2642785
    4	524312
    5	877572
    6	30688

Surface refinement iteration 5
------------------------------

Marked for refinement due to surface intersection          : 10528 cells.
Marked for refinement due to curvature/regions             : 39397 cells.
Determined cells to refine in = 8.41133 s
Selected for refinement : 56215 cells (out of 6546023)
Edge intersection testing:
    Number of edges             : 22222151
    Number of edges to retest   : 2183767
    Number of intersected edges : 1337228
Refined mesh in = 25.2585 s
After refinement surface refinement iteration 5 : cells:6939528  faces:22222151  points:8402826
Cells per refinement level:
    0	1664418
    1	161420
    2	644714
    3	2647298
    4	532438
    5	952408
    6	336832
Balanced mesh in = 58.739 s
After balancing surface refinement iteration 5 : cells:6939528  faces:22222151  points:8402826
Cells per refinement level:
    0	1664418
    1	161420
    2	644714
    3	2647298
    4	532438
    5	952408
    6	336832

Surface refinement iteration 6
------------------------------

Marked for refinement due to surface intersection          : 32 cells.
Marked for refinement due to curvature/regions             : 13174 cells.
Determined cells to refine in = 10.4788 s
Selected for refinement : 15032 cells (out of 6939528)
Edge intersection testing:
    Number of edges             : 22579355
    Number of edges to retest   : 733695
    Number of intersected edges : 1392390
Refined mesh in = 15.1579 s
After refinement surface refinement iteration 6 : cells:7044752  faces:22579355  points:8551907
Cells per refinement level:
    0	1664418
    1	161416
    2	644684
    3	2647358
    4	534350
    5	952062
    6	440464
Balanced mesh in = 57.7159 s
After balancing surface refinement iteration 6 : cells:7044752  faces:22579355  points:8551907
Cells per refinement level:
    0	1664418
    1	161416
    2	644684
    3	2647358
    4	534350
    5	952062
    6	440464

Surface refinement iteration 7
------------------------------

Marked for refinement due to surface intersection          : 0 cells.
Marked for refinement due to curvature/regions             : 699 cells.
Determined cells to refine in = 8.93833 s
Selected for refinement : 1011 cells (out of 7044752)
Edge intersection testing:
    Number of edges             : 22601837
    Number of edges to retest   : 54561
    Number of intersected edges : 1392798
Refined mesh in = 10.4231 s
After refinement surface refinement iteration 7 : cells:7051829  faces:22601837  points:8560191
Cells per refinement level:
    0	1664418
    1	161416
    2	644664
    3	2647439
    4	534702
    5	953670
    6	445520
Balanced mesh in = 58.1919 s
After balancing surface refinement iteration 7 : cells:7051829  faces:22601837  points:8560191
Cells per refinement level:
    0	1664418
    1	161416
    2	644664
    3	2647439
    4	534702
    5	953670
    6	445520

Surface refinement iteration 8
------------------------------

Marked for refinement due to surface intersection          : 0 cells.
Marked for refinement due to curvature/regions             : 48 cells.
Determined cells to refine in = 8.17332 s
Selected for refinement : 60 cells (out of 7051829)
Edge intersection testing:
    Number of edges             : 22603274
    Number of edges to retest   : 4360
    Number of intersected edges : 1392946
Refined mesh in = 10.034 s
After refinement surface refinement iteration 8 : cells:7052249  faces:22603274  points:8560780
Cells per refinement level:
    0	1664418
    1	161416
    2	644660
    3	2647447
    4	534862
    5	953926
    6	445520
Balanced mesh in = 56.2434 s
After balancing surface refinement iteration 8 : cells:7052249  faces:22603274  points:8560780
Cells per refinement level:
    0	1664418
    1	161416
    2	644660
    3	2647447
    4	534862
    5	953926
    6	445520

Surface refinement iteration 9
------------------------------

Marked for refinement due to surface intersection          : 0 cells.
Marked for refinement due to curvature/regions             : 10 cells.
Determined cells to refine in = 8.19053 s
Selected for refinement : 18 cells (out of 7052249)
Edge intersection testing:
    Number of edges             : 22603703
    Number of edges to retest   : 1552
    Number of intersected edges : 1393014
Refined mesh in = 9.72369 s
After refinement surface refinement iteration 9 : cells:7052375  faces:22603703  points:8560957
Cells per refinement level:
    0	1664418
    1	161416
    2	644652
    3	2647501
    4	534942
    5	953926
    6	445520
Balanced mesh in = 57.293 s
After balancing surface refinement iteration 9 : cells:7052375  faces:22603703  points:8560957
Cells per refinement level:
    0	1664418
    1	161416
    2	644652
    3	2647501
    4	534942
    5	953926
    6	445520

Surface refinement iteration 10
------------------------------

Marked for refinement due to surface intersection          : 0 cells.
Marked for refinement due to curvature/regions             : 15 cells.
Determined cells to refine in = 8.19186 s
Selected for refinement : 15 cells (out of 7052375)
Edge intersection testing:
    Number of edges             : 22604087
    Number of edges to retest   : 1126
    Number of intersected edges : 1393106
Refined mesh in = 9.91162 s
After refinement surface refinement iteration 10 : cells:7052480  faces:22604087  points:8561131
Cells per refinement level:
    0	1664418
    1	161416
    2	644652
    3	2647486
    4	535062
    5	953926
    6	445520
Balanced mesh in = 57.3392 s
After balancing surface refinement iteration 10 : cells:7052480  faces:22604087  points:8561131
Cells per refinement level:
    0	1664418
    1	161416
    2	644652
    3	2647486
    4	535062
    5	953926
    6	445520

Surface refinement iteration 11
------------------------------

Marked for refinement due to surface intersection          : 0 cells.
Marked for refinement due to curvature/regions             : 10 cells.
Determined cells to refine in = 8.61693 s
Selected for refinement : 18 cells (out of 7052480)
Edge intersection testing:
    Number of edges             : 22604516
    Number of edges to retest   : 1549
    Number of intersected edges : 1393174
Refined mesh in = 9.69581 s
After refinement surface refinement iteration 11 : cells:7052606  faces:22604516  points:8561308
Cells per refinement level:
    0	1664418
    1	161416
    2	644644
    3	2647540
    4	535142
    5	953926
    6	445520
Balanced mesh in = 57.9089 s
After balancing surface refinement iteration 11 : cells:7052606  faces:22604516  points:8561308
Cells per refinement level:
    0	1664418
    1	161416
    2	644644
    3	2647540
    4	535142
    5	953926
    6	445520

Surface refinement iteration 12
------------------------------

Marked for refinement due to surface intersection          : 0 cells.
Marked for refinement due to curvature/regions             : 16 cells.
Determined cells to refine in = 10.8471 s
Selected for refinement : 16 cells (out of 7052606)
Edge intersection testing:
    Number of edges             : 22604921
    Number of edges to retest   : 1188
    Number of intersected edges : 1393266
Refined mesh in = 9.79211 s
After refinement surface refinement iteration 12 : cells:7052718  faces:22604921  points:8561489
Cells per refinement level:
    0	1664418
    1	161416
    2	644644
    3	2647524
    4	535270
    5	953926
    6	445520
Balanced mesh in = 57.6487 s
After balancing surface refinement iteration 12 : cells:7052718  faces:22604921  points:8561489
Cells per refinement level:
    0	1664418
    1	161416
    2	644644
    3	2647524
    4	535270
    5	953926
    6	445520

Surface refinement iteration 13
------------------------------

Marked for refinement due to surface intersection          : 0 cells.
Marked for refinement due to curvature/regions             : 10 cells.
Determined cells to refine in = 8.12119 s
Selected for refinement : 18 cells (out of 7052718)
Edge intersection testing:
    Number of edges             : 22605350
    Number of edges to retest   : 1555
    Number of intersected edges : 1393334
Refined mesh in = 9.65163 s
After refinement surface refinement iteration 13 : cells:7052844  faces:22605350  points:8561666
Cells per refinement level:
    0	1664418
    1	161416
    2	644636
    3	2647578
    4	535350
    5	953926
    6	445520
Balanced mesh in = 56.6627 s
After balancing surface refinement iteration 13 : cells:7052844  faces:22605350  points:8561666
Cells per refinement level:
    0	1664418
    1	161416
    2	644636
    3	2647578
    4	535350
    5	953926
    6	445520

Surface refinement iteration 14
------------------------------

Marked for refinement due to surface intersection          : 0 cells.
Marked for refinement due to curvature/regions             : 15 cells.
Determined cells to refine in = 8.03181 s
Selected for refinement : 15 cells (out of 7052844)
Edge intersection testing:
    Number of edges             : 22605734
    Number of edges to retest   : 1123
    Number of intersected edges : 1393426
Refined mesh in = 9.65921 s
After refinement surface refinement iteration 14 : cells:7052949  faces:22605734  points:8561840
Cells per refinement level:
    0	1664418
    1	161416
    2	644636
    3	2647563
    4	535470
    5	953926
    6	445520
Balanced mesh in = 57.0997 s
After balancing surface refinement iteration 14 : cells:7052949  faces:22605734  points:8561840
Cells per refinement level:
    0	1664418
    1	161416
    2	644636
    3	2647563
    4	535470
    5	953926
    6	445520

Surface refinement iteration 15
------------------------------

Marked for refinement due to surface intersection          : 0 cells.
Marked for refinement due to curvature/regions             : 10 cells.
Determined cells to refine in = 7.83835 s
Selected for refinement : 18 cells (out of 7052949)
Edge intersection testing:
    Number of edges             : 22606166
    Number of edges to retest   : 1553
    Number of intersected edges : 1393498
Refined mesh in = 9.67977 s
After refinement surface refinement iteration 15 : cells:7053075  faces:22606166  points:8562020
Cells per refinement level:
    0	1664418
    1	161416
    2	644628
    3	2647617
    4	535550
    5	953926
    6	445520
Balanced mesh in = 56.0338 s
After balancing surface refinement iteration 15 : cells:7053075  faces:22606166  points:8562020
Cells per refinement level:
    0	1664418
    1	161416
    2	644628
    3	2647617
    4	535550
    5	953926
    6	445520

Surface refinement iteration 16
------------------------------

Marked for refinement due to surface intersection          : 0 cells.
Marked for refinement due to curvature/regions             : 16 cells.
Determined cells to refine in = 8.2169 s
Selected for refinement : 16 cells (out of 7053075)
Edge intersection testing:
    Number of edges             : 22606571
    Number of edges to retest   : 1194
    Number of intersected edges : 1393590
Refined mesh in = 9.66903 s
After refinement surface refinement iteration 16 : cells:7053187  faces:22606571  points:8562201
Cells per refinement level:
    0	1664418
    1	161416
    2	644628
    3	2647601
    4	535678
    5	953926
    6	445520
Balanced mesh in = 60.1461 s
After balancing surface refinement iteration 16 : cells:7053187  faces:22606571  points:8562201
Cells per refinement level:
    0	1664418
    1	161416
    2	644628
    3	2647601
    4	535678
    5	953926
    6	445520

Surface refinement iteration 17
------------------------------

Marked for refinement due to surface intersection          : 0 cells.
Marked for refinement due to curvature/regions             : 8 cells.
Determined cells to refine in = 8.65324 s
Selected for refinement : 16 cells (out of 7053187)
Edge intersection testing:
    Number of edges             : 22606952
    Number of edges to retest   : 1445
    Number of intersected edges : 1393654
Refined mesh in = 9.41803 s
After refinement surface refinement iteration 17 : cells:7053299  faces:22606952  points:8562358
Cells per refinement level:
    0	1664418
    1	161416
    2	644620
    3	2647657
    4	535742
    5	953926
    6	445520
Balanced mesh in = 57.3104 s
After balancing surface refinement iteration 17 : cells:7053299  faces:22606952  points:8562358
Cells per refinement level:
    0	1664418
    1	161416
    2	644620
    3	2647657
    4	535742
    5	953926
    6	445520

Surface refinement iteration 18
------------------------------

Marked for refinement due to surface intersection          : 0 cells.
Marked for refinement due to curvature/regions             : 14 cells.
Determined cells to refine in = 8.12099 s
Selected for refinement : 14 cells (out of 7053299)
Edge intersection testing:
    Number of edges             : 22607312
    Number of edges to retest   : 1054
    Number of intersected edges : 1393742
Refined mesh in = 9.54048 s
After refinement surface refinement iteration 18 : cells:7053397  faces:22607312  points:8562522
Cells per refinement level:
    0	1664418
    1	161416
    2	644620
    3	2647643
    4	535854
    5	953926
    6	445520
Balanced mesh in = 56.1591 s
After balancing surface refinement iteration 18 : cells:7053397  faces:22607312  points:8562522
Cells per refinement level:
    0	1664418
    1	161416
    2	644620
    3	2647643
    4	535854
    5	953926
    6	445520

Surface refinement iteration 19
------------------------------

Marked for refinement due to surface intersection          : 0 cells.
Marked for refinement due to curvature/regions             : 9 cells.
Determined cells to refine in = 8.20272 s
Selected for refinement : 16 cells (out of 7053397)
Edge intersection testing:
    Number of edges             : 22607696
    Number of edges to retest   : 1397
    Number of intersected edges : 1393806
Refined mesh in = 9.7787 s
After refinement surface refinement iteration 19 : cells:7053509  faces:22607696  points:8562682
Cells per refinement level:
    0	1664418
    1	161416
    2	644613
    3	2647690
    4	535926
    5	953926
    6	445520
Balanced mesh in = 58.8097 s
After balancing surface refinement iteration 19 : cells:7053509  faces:22607696  points:8562682
Cells per refinement level:
    0	1664418
    1	161416
    2	644613
    3	2647690
    4	535926
    5	953926
    6	445520

Surface refinement iteration 20
------------------------------

Marked for refinement due to surface intersection          : 0 cells.
Marked for refinement due to curvature/regions             : 13 cells.
Determined cells to refine in = 8.62606 s
Selected for refinement : 13 cells (out of 7053509)
Edge intersection testing:
    Number of edges             : 22608032
    Number of edges to retest   : 988
    Number of intersected edges : 1393890
Refined mesh in = 9.99885 s
After refinement surface refinement iteration 20 : cells:7053600  faces:22608032  points:8562836
Cells per refinement level:
    0	1664418
    1	161416
    2	644613
    3	2647677
    4	536030
    5	953926
    6	445520
Balanced mesh in = 57.544 s
After balancing surface refinement iteration 20 : cells:7053600  faces:22608032  points:8562836
Cells per refinement level:
    0	1664418
    1	161416
    2	644613
    3	2647677
    4	536030
    5	953926
    6	445520

Surface refinement iteration 21
------------------------------

Marked for refinement due to surface intersection          : 0 cells.
Marked for refinement due to curvature/regions             : 10 cells.
Determined cells to refine in = 8.90582 s
Selected for refinement : 18 cells (out of 7053600)
Edge intersection testing:
    Number of edges             : 22608461
    Number of edges to retest   : 1546
    Number of intersected edges : 1393958
Refined mesh in = 10.2156 s
After refinement surface refinement iteration 21 : cells:7053726  faces:22608461  points:8563013
Cells per refinement level:
    0	1664418
    1	161416
    2	644605
    3	2647731
    4	536110
    5	953926
    6	445520
Balanced mesh in = 55.3863 s
After balancing surface refinement iteration 21 : cells:7053726  faces:22608461  points:8563013
Cells per refinement level:
    0	1664418
    1	161416
    2	644605
    3	2647731
    4	536110
    5	953926
    6	445520

Surface refinement iteration 22
------------------------------

Marked for refinement due to surface intersection          : 0 cells.
Marked for refinement due to curvature/regions             : 16 cells.
Determined cells to refine in = 7.82452 s
Selected for refinement : 16 cells (out of 7053726)
Edge intersection testing:
    Number of edges             : 22608869
    Number of edges to retest   : 1186
    Number of intersected edges : 1394054
Refined mesh in = 9.74629 s
After refinement surface refinement iteration 22 : cells:7053838  faces:22608869  points:8563197
Cells per refinement level:
    0	1664418
    1	161416
    2	644605
    3	2647715
    4	536238
    5	953926
    6	445520
Balanced mesh in = 61.8467 s
After balancing surface refinement iteration 22 : cells:7053838  faces:22608869  points:8563197
Cells per refinement level:
    0	1664418
    1	161416
    2	644605
    3	2647715
    4	536238
    5	953926
    6	445520

Surface refinement iteration 23
------------------------------

Marked for refinement due to surface intersection          : 0 cells.
Marked for refinement due to curvature/regions             : 10 cells.
Determined cells to refine in = 9.79981 s
Selected for refinement : 18 cells (out of 7053838)
Edge intersection testing:
    Number of edges             : 22609295
    Number of edges to retest   : 1560
    Number of intersected edges : 1394122
Refined mesh in = 9.70009 s
After refinement surface refinement iteration 23 : cells:7053964  faces:22609295  points:8563371
Cells per refinement level:
    0	1664418
    1	161416
    2	644597
    3	2647769
    4	536318
    5	953926
    6	445520
Balanced mesh in = 56.0789 s
After balancing surface refinement iteration 23 : cells:7053964  faces:22609295  points:8563371
Cells per refinement level:
    0	1664418
    1	161416
    2	644597
    3	2647769
    4	536318
    5	953926
    6	445520

Surface refinement iteration 24
------------------------------

Marked for refinement due to surface intersection          : 0 cells.
Marked for refinement due to curvature/regions             : 16 cells.
Determined cells to refine in = 8.41053 s
Selected for refinement : 16 cells (out of 7053964)
Edge intersection testing:
    Number of edges             : 22609700
    Number of edges to retest   : 1188
    Number of intersected edges : 1394214
Refined mesh in = 9.79933 s
After refinement surface refinement iteration 24 : cells:7054076  faces:22609700  points:8563552
Cells per refinement level:
    0	1664418
    1	161416
    2	644597
    3	2647753
    4	536446
    5	953926
    6	445520
Balanced mesh in = 58.3882 s
After balancing surface refinement iteration 24 : cells:7054076  faces:22609700  points:8563552
Cells per refinement level:
    0	1664418
    1	161416
    2	644597
    3	2647753
    4	536446
    5	953926
    6	445520

Surface refinement iteration 25
------------------------------

Marked for refinement due to surface intersection          : 0 cells.
Marked for refinement due to curvature/regions             : 11 cells.
Determined cells to refine in = 8.07522 s
Selected for refinement : 18 cells (out of 7054076)
Edge intersection testing:
    Number of edges             : 22610129
    Number of edges to retest   : 1518
    Number of intersected edges : 1394286
Refined mesh in = 10.0903 s
After refinement surface refinement iteration 25 : cells:7054202  faces:22610129  points:8563729
Cells per refinement level:
    0	1664418
    1	161416
    2	644590
    3	2647798
    4	536534
    5	953926
    6	445520
Balanced mesh in = 57.7068 s
After balancing surface refinement iteration 25 : cells:7054202  faces:22610129  points:8563729
Cells per refinement level:
    0	1664418
    1	161416
    2	644590
    3	2647798
    4	536534
    5	953926
    6	445520

Surface refinement iteration 26
------------------------------

Marked for refinement due to surface intersection          : 0 cells.
Marked for refinement due to curvature/regions             : 15 cells.
Determined cells to refine in = 8.66894 s
Selected for refinement : 15 cells (out of 7054202)
Edge intersection testing:
    Number of edges             : 22610510
    Number of edges to retest   : 1131
    Number of intersected edges : 1394374
Refined mesh in = 9.84797 s
After refinement surface refinement iteration 26 : cells:7054307  faces:22610510  points:8563900
Cells per refinement level:
    0	1664418
    1	161416
    2	644590
    3	2647783
    4	536654
    5	953926
    6	445520
Balanced mesh in = 57.3254 s
After balancing surface refinement iteration 26 : cells:7054307  faces:22610510  points:8563900
Cells per refinement level:
    0	1664418
    1	161416
    2	644590
    3	2647783
    4	536654
    5	953926
    6	445520

Surface refinement iteration 27
------------------------------

Marked for refinement due to surface intersection          : 0 cells.
Marked for refinement due to curvature/regions             : 12 cells.
Determined cells to refine in = 8.77429 s
Selected for refinement : 19 cells (out of 7054307)
Edge intersection testing:
    Number of edges             : 22610966
    Number of edges to retest   : 1568
    Number of intersected edges : 1394450
Refined mesh in = 9.8791 s
After refinement surface refinement iteration 27 : cells:7054440  faces:22610966  points:8564090
Cells per refinement level:
    0	1664418
    1	161416
    2	644583
    3	2647827
    4	536750
    5	953926
    6	445520
Balanced mesh in = 55.5517 s
After balancing surface refinement iteration 27 : cells:7054440  faces:22610966  points:8564090
Cells per refinement level:
    0	1664418
    1	161416
    2	644583
    3	2647827
    4	536750
    5	953926
    6	445520

Surface refinement iteration 28
------------------------------

Marked for refinement due to surface intersection          : 0 cells.
Marked for refinement due to curvature/regions             : 16 cells.
Determined cells to refine in = 8.46794 s
Selected for refinement : 16 cells (out of 7054440)
Edge intersection testing:
    Number of edges             : 22611374
    Number of edges to retest   : 1195
    Number of intersected edges : 1394546
Refined mesh in = 9.87929 s
After refinement surface refinement iteration 28 : cells:7054552  faces:22611374  points:8564274
Cells per refinement level:
    0	1664418
    1	161416
    2	644583
    3	2647811
    4	536878
    5	953926
    6	445520
Balanced mesh in = 57.7063 s
After balancing surface refinement iteration 28 : cells:7054552  faces:22611374  points:8564274
Cells per refinement level:
    0	1664418
    1	161416
    2	644583
    3	2647811
    4	536878
    5	953926
    6	445520

Surface refinement iteration 29
------------------------------

Marked for refinement due to surface intersection          : 0 cells.
Marked for refinement due to curvature/regions             : 12 cells.
Determined cells to refine in = 8.73042 s
Selected for refinement : 20 cells (out of 7054552)
Edge intersection testing:
    Number of edges             : 22611845
    Number of edges to retest   : 1672
    Number of intersected edges : 1394614
Refined mesh in = 10.2214 s
After refinement surface refinement iteration 29 : cells:7054692  faces:22611845  points:8564465
Cells per refinement level:
    0	1664418
    1	161416
    2	644575
    3	2647863
    4	536974
    5	953926
    6	445520
Balanced mesh in = 56.3835 s
After balancing surface refinement iteration 29 : cells:7054692  faces:22611845  points:8564465
Cells per refinement level:
    0	1664418
    1	161416
    2	644575
    3	2647863
    4	536974
    5	953926
    6	445520

Surface refinement iteration 30
------------------------------

Marked for refinement due to surface intersection          : 0 cells.
Marked for refinement due to curvature/regions             : 16 cells.
Determined cells to refine in = 8.58964 s
Selected for refinement : 16 cells (out of 7054692)
Edge intersection testing:
    Number of edges             : 22612244
    Number of edges to retest   : 1195
    Number of intersected edges : 1394698
Refined mesh in = 10.024 s
After refinement surface refinement iteration 30 : cells:7054804  faces:22612244  points:8564640
Cells per refinement level:
    0	1664418
    1	161416
    2	644575
    3	2647847
    4	537102
    5	953926
    6	445520
Balanced mesh in = 56.0297 s
After balancing surface refinement iteration 30 : cells:7054804  faces:22612244  points:8564640
Cells per refinement level:
    0	1664418
    1	161416
    2	644575
    3	2647847
    4	537102
    5	953926
    6	445520

Surface refinement iteration 31
------------------------------

Marked for refinement due to surface intersection          : 0 cells.
Marked for refinement due to curvature/regions             : 8 cells.
Determined cells to refine in = 8.49652 s
Selected for refinement : 16 cells (out of 7054804)
Edge intersection testing:
    Number of edges             : 22612625
    Number of edges to retest   : 1445
    Number of intersected edges : 1394762
Refined mesh in = 9.93074 s
After refinement surface refinement iteration 31 : cells:7054916  faces:22612625  points:8564797
Cells per refinement level:
    0	1664418
    1	161416
    2	644567
    3	2647903
    4	537166
    5	953926
    6	445520
Balanced mesh in = 59.3331 s
After balancing surface refinement iteration 31 : cells:7054916  faces:22612625  points:8564797
Cells per refinement level:
    0	1664418
    1	161416
    2	644567
    3	2647903
    4	537166
    5	953926
    6	445520

Surface refinement iteration 32
------------------------------

Marked for refinement due to surface intersection          : 0 cells.
Marked for refinement due to curvature/regions             : 15 cells.
Determined cells to refine in = 8.53613 s
Selected for refinement : 15 cells (out of 7054916)
Edge intersection testing:
    Number of edges             : 22613009
    Number of edges to retest   : 1117
    Number of intersected edges : 1394854
Refined mesh in = 9.67777 s
After refinement surface refinement iteration 32 : cells:7055021  faces:22613009  points:8564971
Cells per refinement level:
    0	1664418
    1	161416
    2	644567
    3	2647888
    4	537286
    5	953926
    6	445520
Balanced mesh in = 55.095 s
After balancing surface refinement iteration 32 : cells:7055021  faces:22613009  points:8564971
Cells per refinement level:
    0	1664418
    1	161416
    2	644567
    3	2647888
    4	537286
    5	953926
    6	445520

Surface refinement iteration 33
------------------------------

Marked for refinement due to surface intersection          : 0 cells.
Marked for refinement due to curvature/regions             : 10 cells.
[...]
    non-orthogonality > 65  degrees                        : 3242
    faces with face pyramid volume < 1e-13                 : 0
    faces with face-decomposition tet quality < 1e-15      : 120
    faces with concavity > 80  degrees                     : 1
    faces with skewness > 4   (internal) or 20  (boundary) : 0
    faces with interpolation weights (0..1)  < 0.02        : 0
    faces with volume ratio of neighbour cells < 0.01      : 0
    faces with face twist < 0.02                           : 0
    faces on cells with determinant < 0.001                : 0

Iteration 6
Moving mesh using displacement scaling : min:0  max:1
Checking faces in error :
    non-orthogonality > 65  degrees                        : 1
    faces with face pyramid volume < 1e-13                 : 0
    faces with face-decomposition tet quality < 1e-15      : 0
    faces with concavity > 80  degrees                     : 0
    faces with skewness > 4   (internal) or 20  (boundary) : 0
    faces with interpolation weights (0..1)  < 0.02        : 0
    faces with volume ratio of neighbour cells < 0.01      : 0
    faces with face twist < 0.02                           : 0
    faces on cells with determinant < 0.001                : 0

Iteration 7
Moving mesh using displacement scaling : min:0  max:1
Checking faces in error :
    non-orthogonality > 65  degrees                        : 0
    faces with face pyramid volume < 1e-13                 : 0
    faces with face-decomposition tet quality < 1e-15      : 0
    faces with concavity > 80  degrees                     : 0
    faces with skewness > 4   (internal) or 20  (boundary) : 0
    faces with interpolation weights (0..1)  < 0.02        : 0
    faces with volume ratio of neighbour cells < 0.01      : 0
    faces with face twist < 0.02                           : 0
    faces on cells with determinant < 0.001                : 0
Successfully moved mesh
Moved mesh in = 201.761 s



Morph iteration 8
-----------------
Calculating patchDisplacement as distance to nearest surface point ...
Wanted displacement : average:6.36723e-06 min:4.31815e-11 max:0.00117386
Calculated surface displacement in = 2.12115 s


Detecting near surfaces ...
Overriding nearest with intersection of close gaps at 29774 out of 593041 points.
Overriding displacement on features :
   implicit features    : false
   explicit features    : true
   multi-patch features : false

Detected 0 baffle edges out of 1163849 edges.
--> FOAM Warning : 
    From function Foam::treeBoundBox::treeBoundBox(const UList<point> &)
    in file meshes/treeBoundBox/treeBoundBox.C at line 129
    cannot find bounding box for zero-sized pointField, returning zero
Initially selected 12442 points out of 593041 for reverse attraction.
Selected 32925 points out of 593041 for reverse attraction.
Stringing feature edges : changed 0 points
Attraction:
     linear   : max:(0 0.00117386 0) avg:(-6.09808e-09 1.31636e-08 8.26756e-09)
     feature  : max:(0 0 0) avg:(0 0 0)
Feature analysis : total master points:586700 attraction to :
    feature point   : 0
    feature edge    : 0
    nearest surface : 0
    rest            : 586700

Smoothing displacement ...
Iteration 0
Iteration 10
Iteration 20
Iteration 30
Iteration 40
Iteration 50
Iteration 60
Iteration 70
Iteration 80
Iteration 90
Displacement smoothed in = 40.7597 s


Moving mesh ...

Iteration 0
Moving mesh using displacement scaling : min:1  max:1
Checking faces in error :
    non-orthogonality > 65  degrees                        : 3577
    faces with face pyramid volume < 1e-13                 : 0
    faces with face-decomposition tet quality < 1e-15      : 176
    faces with concavity > 80  degrees                     : 19
    faces with skewness > 4   (internal) or 20  (boundary) : 0
    faces with interpolation weights (0..1)  < 0.02        : 0
    faces with volume ratio of neighbour cells < 0.01      : 0
    faces with face twist < 0.02                           : 0
    faces on cells with determinant < 0.001                : 0

Iteration 1
Moving mesh using displacement scaling : min:0.75  max:1
Checking faces in error :
    non-orthogonality > 65  degrees                        : 3438
    faces with face pyramid volume < 1e-13                 : 0
    faces with face-decomposition tet quality < 1e-15      : 176
    faces with concavity > 80  degrees                     : 19
    faces with skewness > 4   (internal) or 20  (boundary) : 0
    faces with interpolation weights (0..1)  < 0.02        : 0
    faces with volume ratio of neighbour cells < 0.01      : 0
    faces with face twist < 0.02                           : 0
    faces on cells with determinant < 0.001                : 0

Iteration 2
Moving mesh using displacement scaling : min:0.5625  max:1
Checking faces in error :
    non-orthogonality > 65  degrees                        : 3334
    faces with face pyramid volume < 1e-13                 : 0
    faces with face-decomposition tet quality < 1e-15      : 168
    faces with concavity > 80  degrees                     : 19
    faces with skewness > 4   (internal) or 20  (boundary) : 0
    faces with interpolation weights (0..1)  < 0.02        : 0
    faces with volume ratio of neighbour cells < 0.01      : 0
    faces with face twist < 0.02                           : 7
    faces on cells with determinant < 0.001                : 0

Iteration 3
Moving mesh using displacement scaling : min:0.421875  max:1
Checking faces in error :
    non-orthogonality > 65  degrees                        : 3324
    faces with face pyramid volume < 1e-13                 : 0
    faces with face-decomposition tet quality < 1e-15      : 152
    faces with concavity > 80  degrees                     : 19
    faces with skewness > 4   (internal) or 20  (boundary) : 0
    faces with interpolation weights (0..1)  < 0.02        : 0
    faces with volume ratio of neighbour cells < 0.01      : 0
    faces with face twist < 0.02                           : 0
    faces on cells with determinant < 0.001                : 0

Iteration 4
Moving mesh using displacement scaling : min:0.316406  max:1
Checking faces in error :
    non-orthogonality > 65  degrees                        : 3325
    faces with face pyramid volume < 1e-13                 : 0
    faces with face-decomposition tet quality < 1e-15      : 152
    faces with concavity > 80  degrees                     : 19
    faces with skewness > 4   (internal) or 20  (boundary) : 0
    faces with interpolation weights (0..1)  < 0.02        : 0
    faces with volume ratio of neighbour cells < 0.01      : 0
    faces with face twist < 0.02                           : 0
    faces on cells with determinant < 0.001                : 0

Iteration 5
Displacement scaling for error reduction set to 0.
Moving mesh using displacement scaling : min:0.237305  max:1
Checking faces in error :
    non-orthogonality > 65  degrees                        : 3305
    faces with face pyramid volume < 1e-13                 : 0
    faces with face-decomposition tet quality < 1e-15      : 152
    faces with concavity > 80  degrees                     : 19
    faces with skewness > 4   (internal) or 20  (boundary) : 0
    faces with interpolation weights (0..1)  < 0.02        : 0
    faces with volume ratio of neighbour cells < 0.01      : 0
    faces with face twist < 0.02                           : 0
    faces on cells with determinant < 0.001                : 0

Iteration 6
Moving mesh using displacement scaling : min:0  max:1
Checking faces in error :
    non-orthogonality > 65  degrees                        : 3
    faces with face pyramid volume < 1e-13                 : 0
    faces with face-decomposition tet quality < 1e-15      : 0
    faces with concavity > 80  degrees                     : 0
    faces with skewness > 4   (internal) or 20  (boundary) : 0
    faces with interpolation weights (0..1)  < 0.02        : 0
    faces with volume ratio of neighbour cells < 0.01      : 0
    faces with face twist < 0.02                           : 1
    faces on cells with determinant < 0.001                : 0

Iteration 7
Moving mesh using displacement scaling : min:0  max:1
Checking faces in error :
    non-orthogonality > 65  degrees                        : 0
    faces with face pyramid volume < 1e-13                 : 0
    faces with face-decomposition tet quality < 1e-15      : 0
    faces with concavity > 80  degrees                     : 0
    faces with skewness > 4   (internal) or 20  (boundary) : 0
    faces with interpolation weights (0..1)  < 0.02        : 0
    faces with volume ratio of neighbour cells < 0.01      : 0
    faces with face twist < 0.02                           : 0
    faces on cells with determinant < 0.001                : 0
Successfully moved mesh
Moved mesh in = 201.823 s



Morph iteration 9
-----------------
Calculating patchDisplacement as distance to nearest surface point ...
Wanted displacement : average:2.48145e-06 min:2.43135e-12 max:0.000451123
Calculated surface displacement in = 2.12466 s


Detecting near surfaces ...
Overriding nearest with intersection of close gaps at 29798 out of 593041 points.
Overriding displacement on features :
   implicit features    : false
   explicit features    : true
   multi-patch features : false

Detected 0 baffle edges out of 1163849 edges.
--> FOAM Warning : 
    From function Foam::treeBoundBox::treeBoundBox(const UList<point> &)
    in file meshes/treeBoundBox/treeBoundBox.C at line 129
    cannot find bounding box for zero-sized pointField, returning zero
Initially selected 12322 points out of 593041 for reverse attraction.
Selected 32445 points out of 593041 for reverse attraction.
Stringing feature edges : changed 0 points
Attraction:
     linear   : max:(3.46945e-18 -0.000451123 -3.46945e-18) avg:(-1.83682e-08 -2.69938e-09 1.37542e-09)
     feature  : max:(0 0 0) avg:(0 0 0)
Feature analysis : total master points:586700 attraction to :
    feature point   : 0
    feature edge    : 0
    nearest surface : 0
    rest            : 586700

Smoothing displacement ...
Iteration 0
Iteration 10
Iteration 20
Iteration 30
Iteration 40
Iteration 50
Iteration 60
Iteration 70
Iteration 80
Iteration 90
Displacement smoothed in = 38.3275 s


Moving mesh ...

Iteration 0
Moving mesh using displacement scaling : min:1  max:1
Checking faces in error :
    non-orthogonality > 65  degrees                        : 3838
    faces with face pyramid volume < 1e-13                 : 0
    faces with face-decomposition tet quality < 1e-15      : 136
    faces with concavity > 80  degrees                     : 27
    faces with skewness > 4   (internal) or 20  (boundary) : 0
    faces with interpolation weights (0..1)  < 0.02        : 0
    faces with volume ratio of neighbour cells < 0.01      : 0
    faces with face twist < 0.02                           : 0
    faces on cells with determinant < 0.001                : 0

Iteration 1
Moving mesh using displacement scaling : min:0.75  max:1
Checking faces in error :
    non-orthogonality > 65  degrees                        : 3650
    faces with face pyramid volume < 1e-13                 : 0
    faces with face-decomposition tet quality < 1e-15      : 136
    faces with concavity > 80  degrees                     : 19
    faces with skewness > 4   (internal) or 20  (boundary) : 0
    faces with interpolation weights (0..1)  < 0.02        : 0
    faces with volume ratio of neighbour cells < 0.01      : 0
    faces with face twist < 0.02                           : 0
    faces on cells with determinant < 0.001                : 0

Iteration 2
Moving mesh using displacement scaling : min:0.5625  max:1
Checking faces in error :
    non-orthogonality > 65  degrees                        : 3503
    faces with face pyramid volume < 1e-13                 : 0
    faces with face-decomposition tet quality < 1e-15      : 123
    faces with concavity > 80  degrees                     : 19
    faces with skewness > 4   (internal) or 20  (boundary) : 0
    faces with interpolation weights (0..1)  < 0.02        : 0
    faces with volume ratio of neighbour cells < 0.01      : 0
    faces with face twist < 0.02                           : 0
    faces on cells with determinant < 0.001                : 0

Iteration 3
Moving mesh using displacement scaling : min:0.421875  max:1
Checking faces in error :
    non-orthogonality > 65  degrees                        : 3487
    faces with face pyramid volume < 1e-13                 : 0
    faces with face-decomposition tet quality < 1e-15      : 120
    faces with concavity > 80  degrees                     : 19
    faces with skewness > 4   (internal) or 20  (boundary) : 0
    faces with interpolation weights (0..1)  < 0.02        : 0
    faces with volume ratio of neighbour cells < 0.01      : 0
    faces with face twist < 0.02                           : 0
    faces on cells with determinant < 0.001                : 0

Iteration 4
Moving mesh using displacement scaling : min:0.316406  max:1
Checking faces in error :
    non-orthogonality > 65  degrees                        : 3464
    faces with face pyramid volume < 1e-13                 : 0
    faces with face-decomposition tet quality < 1e-15      : 120
    faces with concavity > 80  degrees                     : 19
    faces with skewness > 4   (internal) or 20  (boundary) : 0
    faces with interpolation weights (0..1)  < 0.02        : 0
    faces with volume ratio of neighbour cells < 0.01      : 0
    faces with face twist < 0.02                           : 0
    faces on cells with determinant < 0.001                : 0

Iteration 5
Displacement scaling for error reduction set to 0.
Moving mesh using displacement scaling : min:0.237305  max:1
Checking faces in error :
    non-orthogonality > 65  degrees                        : 3406
    faces with face pyramid volume < 1e-13                 : 0
    faces with face-decomposition tet quality < 1e-15      : 120
    faces with concavity > 80  degrees                     : 19
    faces with skewness > 4   (internal) or 20  (boundary) : 0
    faces with interpolation weights (0..1)  < 0.02        : 0
    faces with volume ratio of neighbour cells < 0.01      : 0
    faces with face twist < 0.02                           : 0
    faces on cells with determinant < 0.001                : 0

Iteration 6
Moving mesh using displacement scaling : min:0  max:1
Checking faces in error :
    non-orthogonality > 65  degrees                        : 20
    faces with face pyramid volume < 1e-13                 : 0
    faces with face-decomposition tet quality < 1e-15      : 0
    faces with concavity > 80  degrees                     : 0
    faces with skewness > 4   (internal) or 20  (boundary) : 0
    faces with interpolation weights (0..1)  < 0.02        : 0
    faces with volume ratio of neighbour cells < 0.01      : 0
    faces with face twist < 0.02                           : 1
    faces on cells with determinant < 0.001                : 0

Iteration 7
Moving mesh using displacement scaling : min:0  max:1
Checking faces in error :
    non-orthogonality > 65  degrees                        : 0
    faces with face pyramid volume < 1e-13                 : 0
    faces with face-decomposition tet quality < 1e-15      : 0
    faces with concavity > 80  degrees                     : 0
    faces with skewness > 4   (internal) or 20  (boundary) : 0
    faces with interpolation weights (0..1)  < 0.02        : 0
    faces with volume ratio of neighbour cells < 0.01      : 0
    faces with face twist < 0.02                           : 0
    faces on cells with determinant < 0.001                : 0
Successfully moved mesh
Moved mesh in = 201.961 s


Repatching faces according to nearest surface ...
Repatched 27147 faces in = 2.36614 s


Edge intersection testing:
    Number of edges             : 19075253
    Number of edges to retest   : 3422521
    Number of intersected edges : 569457
Merging 50969 sets of faces.

Edge intersection testing:
    Number of edges             : 19021363
    Number of edges to retest   : 214359
    Number of intersected edges : 515692

Undo iteration 0
----------------
Checking faces in error :
    non-orthogonality > 65  degrees                        : 186
    faces with face pyramid volume < 1e-13                 : 0
    faces with face-decomposition tet quality < 1e-15      : 120
    faces with concavity > 80  degrees                     : 0
    faces with skewness > 4   (internal) or 20  (boundary) : 0
    faces with interpolation weights (0..1)  < 0.02        : 0
    faces with volume ratio of neighbour cells < 0.01      : 0
    faces with face twist < 0.02                           : 0
    faces on cells with determinant < 0.001                : 0
Masters that need to be restored:408
Edge intersection testing:
    Number of edges             : 19021882
    Number of edges to retest   : 2871
    Number of intersected edges : 516211


Undo iteration 1
----------------
Checking faces in error :
    non-orthogonality > 65  degrees                        : 0
    faces with face pyramid volume < 1e-13                 : 0
    faces with face-decomposition tet quality < 1e-15      : 0
    faces with concavity > 80  degrees                     : 0
    faces with skewness > 4   (internal) or 20  (boundary) : 0
    faces with interpolation weights (0..1)  < 0.02        : 0
    faces with volume ratio of neighbour cells < 0.01      : 0
    faces with face twist < 0.02                           : 0
    faces on cells with determinant < 0.001                : 0

Merging all points on surface that
- are used by only two boundary faces and
- make an angle with a cosine of more than 0.866025.

Removing 47618 straight edge points ...

Edge intersection testing:
    Number of edges             : 19021882
    Number of edges to retest   : 208042
    Number of intersected edges : 515385

Undo iteration 0
----------------
Checking faces in error :
    non-orthogonality > 65  degrees                        : 41
    faces with face pyramid volume < 1e-13                 : 0
    faces with face-decomposition tet quality < 1e-15      : 0
    faces with concavity > 80  degrees                     : 0
    faces with skewness > 4   (internal) or 20  (boundary) : 0
    faces with interpolation weights (0..1)  < 0.02        : 0
    faces with volume ratio of neighbour cells < 0.01      : 0
    faces with face twist < 0.02                           : 0
    faces on cells with determinant < 0.001                : 0
Detected 0 error faces on boundaries that have been merged. These will be restored to their original faces.

Detected 41 error faces in mesh. Restoring neighbours of faces in error.

Edge intersection testing:
    Number of edges             : 19021882
    Number of edges to retest   : 3380
    Number of intersected edges : 515385

Removing zero-sized patches:
    nozzle type wall at position 5
    nozzleInlet type patch at position 6

Snapped mesh : cells:5991359  faces:19021882  points:7083351
Cells per refinement level:
    0	1648379
    1	196400
    2	545682
    3	2431550
    4	646774
    5	380094
    6	142480
Writing mesh to time constant
Wrote mesh in = 102.433 s.
Mesh snapped in = 2863.37 s.
Checking final mesh ...
Checking faces in error :
    non-orthogonality > 65  degrees                        : 0
    faces with face pyramid volume < 1e-13                 : 0
    faces with face-decomposition tet quality < 1e-15      : 0
    faces with concavity > 80  degrees                     : 0
    faces with skewness > 4   (internal) or 20  (boundary) : 0
    faces with interpolation weights (0..1)  < 0.02        : 0
    faces with volume ratio of neighbour cells < 0.01      : 0
    faces with face twist < 0.02                           : 0
    faces on cells with determinant < 0.001                : 0
Finished meshing without any errors
Finished meshing in = 31208.3 s.
End

Finalising parallel run
TACC:  Shutdown complete. Exiting. 
