TACC:  Starting up job 2933964 
TACC:  Starting parallel tasks... 

rhoSimpleFoam has been superseded and replaced by the more general
fluid solver module which will be executed using

    foamRun -solver fluid


rhoSimpleFoam has been superseded and replaced by the more general
fluid solver module which will be executed using

    foamRun -solver fluid


rhoSimpleFoam has been superseded and replaced by the more general
fluid solver module which will be executed using

    foamRun -solver fluid


rhoSimpleFoam has been superseded and replaced by the more general
fluid solver module which will be executed using

    foamRun -solver fluid


rhoSimpleFoam has been superseded and replaced by the more general
fluid solver module which will be executed using

    foamRun -solver fluid


rhoSimpleFoam has been superseded and replaced by the more general
fluid solver module which will be executed using

    foamRun -solver fluid


rhoSimpleFoam has been superseded and replaced by the more general
fluid solver module which will be executed using

    foamRun -solver fluid


rhoSimpleFoam has been superseded and replaced by the more general
fluid solver module which will be executed using

    foamRun -solver fluid


rhoSimpleFoam has been superseded and replaced by the more general
fluid solver module which will be executed using

    foamRun -solver fluid


rhoSimpleFoam has been superseded and replaced by the more general
fluid solver module which will be executed using

    foamRun -solver fluid


rhoSimpleFoam has been superseded and replaced by the more general
fluid solver module which will be executed using

    foamRun -solver fluid


rhoSimpleFoam has been superseded and replaced by the more general
fluid solver module which will be executed using

    foamRun -solver fluid


rhoSimpleFoam has been superseded and replaced by the more general
fluid solver module which will be executed using

    foamRun -solver fluid


rhoSimpleFoam has been superseded and replaced by the more general
fluid solver module which will be executed using

    foamRun -solver fluid


rhoSimpleFoam has been superseded and replaced by the more general
fluid solver module which will be executed using

    foamRun -solver fluid


rhoSimpleFoam has been superseded and replaced by the more general
fluid solver module which will be executed using

    foamRun -solver fluid


rhoSimpleFoam has been superseded and replaced by the more general
fluid solver module which will be executed using

    foamRun -solver fluid


rhoSimpleFoam has been superseded and replaced by the more general
fluid solver module which will be executed using

    foamRun -solver fluid


rhoSimpleFoam has been superseded and replaced by the more general
fluid solver module which will be executed using

    foamRun -solver fluid


rhoSimpleFoam has been superseded and replaced by the more general
fluid solver module which will be executed using

    foamRun -solver fluid


rhoSimpleFoam has been superseded and replaced by the more general
fluid solver module which will be executed using

    foamRun -solver fluid


rhoSimpleFoam has been superseded and replaced by the more general
fluid solver module which will be executed using

    foamRun -solver fluid


rhoSimpleFoam has been superseded and replaced by the more general
fluid solver module which will be executed using

    foamRun -solver fluid


rhoSimpleFoam has been superseded and replaced by the more general
fluid solver module which will be executed using

    foamRun -solver fluid


rhoSimpleFoam has been superseded and replaced by the more general
fluid solver module which will be executed using

    foamRun -solver fluid


rhoSimpleFoam has been superseded and replaced by the more general
fluid solver module which will be executed using

    foamRun -solver fluid


rhoSimpleFoam has been superseded and replaced by the more general
fluid solver module which will be executed using

    foamRun -solver fluid


rhoSimpleFoam has been superseded and replaced by the more general
fluid solver module which will be executed using

    foamRun -solver fluid


rhoSimpleFoam has been superseded and replaced by the more general
fluid solver module which will be executed using

    foamRun -solver fluid


rhoSimpleFoam has been superseded and replaced by the more general
fluid solver module which will be executed using

    foamRun -solver fluid


rhoSimpleFoam has been superseded and replaced by the more general
fluid solver module which will be executed using

    foamRun -solver fluid


rhoSimpleFoam has been superseded and replaced by the more general
fluid solver module which will be executed using

    foamRun -solver fluid


rhoSimpleFoam has been superseded and replaced by the more general
fluid solver module which will be executed using

    foamRun -solver fluid


rhoSimpleFoam has been superseded and replaced by the more general
fluid solver module which will be executed using

    foamRun -solver fluid


rhoSimpleFoam has been superseded and replaced by the more general
fluid solver module which will be executed using

    foamRun -solver fluid


rhoSimpleFoam has been superseded and replaced by the more general
fluid solver module which will be executed using

    foamRun -solver fluid


rhoSimpleFoam has been superseded and replaced by the more general
fluid solver module which will be executed using

    foamRun -solver fluid


rhoSimpleFoam has been superseded and replaced by the more general
fluid solver module which will be executed using

    foamRun -solver fluid


rhoSimpleFoam has been superseded and replaced by the more general
fluid solver module which will be executed using

    foamRun -solver fluid


rhoSimpleFoam has been superseded and replaced by the more general
fluid solver module which will be executed using

    foamRun -solver fluid


rhoSimpleFoam has been superseded and replaced by the more general
fluid solver module which will be executed using

    foamRun -solver fluid


rhoSimpleFoam has been superseded and replaced by the more general
fluid solver module which will be executed using

    foamRun -solver fluid


rhoSimpleFoam has been superseded and replaced by the more general
fluid solver module which will be executed using

    foamRun -solver fluid


rhoSimpleFoam has been superseded and replaced by the more general
fluid solver module which will be executed using

    foamRun -solver fluid


rhoSimpleFoam has been superseded and replaced by the more general
fluid solver module which will be executed using

    foamRun -solver fluid


rhoSimpleFoam has been superseded and replaced by the more general
fluid solver module which will be executed using

    foamRun -solver fluid


rhoSimpleFoam has been superseded and replaced by the more general
fluid solver module which will be executed using

    foamRun -solver fluid


rhoSimpleFoam has been superseded and replaced by the more general
fluid solver module which will be executed using

    foamRun -solver fluid

/*---------------------------------------------------------------------------*\
  =========                 |
  \\      /  F ield         | OpenFOAM: The Open Source CFD Toolbox
   \\    /   O peration     | Website:  https://openfoam.org
    \\  /    A nd           | Version:  12
     \\/     M anipulation  |
\*---------------------------------------------------------------------------*/
Build  : 12-6aa359dae696
Exec   : foamRun -solver fluid -parallel
Date   : Feb 19 2026
Time   : 23:14:05
Host   : "c314-164.ls6.tacc.utexas.edu"
PID    : 1893748
I/O    : uncollated
[0] 
[0] 
[0] --> FOAM FATAL ERROR: 
[0] number of processor directories = 12 is not equal to the number of processors = 48
[0] 
FOAM parallel run exiting
[0] 
Abort(1) on node 0 (rank 0 in comm 496): application called MPI_Abort(comm=0x84000003, 1) - process 0
TACC:  MPI job exited with code: 1 
TACC:  Shutdown complete. Exiting. 
